
Spectre (R) Circuit Simulator
Version 16.1.0.673.isr14 64bit -- 30 Mar 2018
Copyright (C) 1989-2018 Cadence Design Systems, Inc. All rights reserved worldwide. Cadence and Spectre are registered trademarks of Cadence Design Systems, Inc. All others are the property of their respective holders.

Includes RSA BSAFE(R) Cryptographic or Security Protocol Software from RSA Security, Inc.

User: brunozimmer   Host: itacolomi.lapsi   HostID: 7F0100   PID: 29325
Memory  available: 747.6101 MB  physical: 33.7038 GB
Linux   : CentOS Linux release 7.6.1810 (Core) 
CPU Type: Intel(R) Xeon(R) CPU E3-1220 V2 @ 3.10GHz
All processors running at 3313.4 MHz
        Socket: Processors
        0:       0,  1,  2,  3
        
System load averages (1min, 5min, 15min) : 53.0 %, 57.8 %, 58.2 %


Simulating `NAND.scs' on itacolomi.lapsi at 12:37:59 PM, Mon Jan 13, 2020 (process id: 29325).
Current working directory: /home/brunozimmer/Documentos/Lab05a/Nand
Command line:
    /tools/cadence/SPECTRE161/tools.lnx86/bin/spectre -64 =mdl  \
        frtime.mdl NAND.scs

Loading /tools/cadence/SPECTRE161/tools.lnx86/cmi/lib/64bit/5.0/libinfineon_sh.so ...
Loading /tools/cadence/SPECTRE161/tools.lnx86/cmi/lib/64bit/5.0/libphilips_o_sh.so ...
Loading /tools/cadence/SPECTRE161/tools.lnx86/cmi/lib/64bit/5.0/libphilips_sh.so ...
Loading /tools/cadence/SPECTRE161/tools.lnx86/cmi/lib/64bit/5.0/libsparam_sh.so ...
Loading /tools/cadence/SPECTRE161/tools.lnx86/cmi/lib/64bit/5.0/libstmodels_sh.so ...
Loading /tools/cadence/SPECTRE161/tools.lnx86/spectre/lib/64bit/mdl/libSpectreEH_sh.so ...

Warning from spectre.
    WARNING (MDL-1452): line 1, column 1: syntax error before or at: *
            unrecognised statement.

Reading file:  /home/brunozimmer/Documentos/Lab05a/Nand/NAND.scs
Reading file:  /tools/cadence/SPECTRE161/tools.lnx86/spectre/etc/configs/mapsubckt.cfg
Reading file:  /tools/cadence/SPECTRE161/tools.lnx86/spectre/etc/configs/spectre.cfg
Reading file:  /home/brunozimmer/Documentos/Lab05a/Nand/NAND2.spi
Reading file:  /home/brunozimmer/Documentos/Lab05a/Nand/45nm_LP.pm
Time for NDB Parsing: CPU = 213.723 ms, elapsed = 236.417 ms.
Time accumulated: CPU = 232.417 ms, elapsed = 236.426 ms.
Peak resident memory used = 52.9 Mbytes.

Reading link:  /tools/cadence/SPECTRE161/tools.lnx86/spectre/etc/ahdl/discipline.h
Reading file:  /tools/cadence/SPECTRE161/tools.lnx86/spectre/etc/ahdl/disciplines.vams
Reading link:  /tools/cadence/SPECTRE161/tools.lnx86/spectre/etc/ahdl/constants.h
Reading file:  /tools/cadence/SPECTRE161/tools.lnx86/spectre/etc/ahdl/constants.vams
Time for Elaboration: CPU = 18.854 ms, elapsed = 19.855 ms.
Time accumulated: CPU = 251.445 ms, elapsed = 256.477 ms.
Peak resident memory used = 59.6 Mbytes.


Warning from spectre during hierarchy flattening.
    WARNING (SFE-2468): A MDL control file 'frtime.mdl' is specified.  All .measure, .print and .probe statements in netlist 'NAND.scs' are ignored.



Warning from spectre during circuit read-in.
    WARNING:     Analysis tran for .print not found, ignoring

Time for EDB Visiting: CPU = 956 us, elapsed = 1.019 ms.
Time accumulated: CPU = 252.566 ms, elapsed = 257.68 ms.
Peak resident memory used = 60.3 Mbytes.


Global user options:
             rawfmt = psfbin

Scoped user options:

Circuit inventory:
              nodes 6
              bsim4 8     
          capacitor 1     
            vsource 3     

Analysis and control statement inventory:
               tran 1     

Output statements:
             .probe 1     
           .measure 0     
               save 0     

Time for parsing: CPU = 2.405 ms, elapsed = 43.354 ms.
Time accumulated: CPU = 255.12 ms, elapsed = 301.201 ms.
Peak resident memory used = 61.7 Mbytes.

~~~~~~~~~~~~~~~~~~~~~~
Pre-Simulation Summary
~~~~~~~~~~~~~~~~~~~~~~
~~~~~~~~~~~~~~~~~~~~~~

****************************************************************
Transient Analysis `RiseTime-000_RiseTime': time = (0 s -> 3 ns)
****************************************************************
DC simulation time: CPU = 756 us, elapsed = 756.979 us.

Notice from spectre during transient analysis `RiseTime-000_RiseTime', during task `MDLControl'.
    No outputs were found. Loosening output filter criterion to `allpub'.


Opening the PSF file NAND.raw/RiseTime-000_RiseTime.tran.tran ...
Important parameter values:
    start = 0 s
    outputstart = 0 s
    stop = 3 ns
    step = 3 ps
    maxstep = 60 ps
    ic = all
    useprevic = no
    skipdc = no
    reltol = 1e-03
    abstol(V) = 1 uV
    abstol(I) = 1 pA
    temp = 27 C
    tnom = 27 C
    tempeffects = all
    errpreset = moderate
    method = traponly
    lteratio = 3.5
    relref = sigglobal
    cmin = 0 F
    gmin = 1 pS


Output and IC/nodeset summary:
                 save   3       (current)
                 save   6       (voltage)

........9........8........7........

Notice from spectre at time = 1.22358 ns during transient analysis `RiseTime-000_RiseTime', during task `MDLControl'.
    Found trapezoidal ringing on node Vd:p.

........9........8........7........6.

Notice from spectre at time = 1.28358 ns during transient analysis `RiseTime-000_RiseTime', during task `MDLControl'.
    Found trapezoidal ringing on node Vd:p.

........9........8........7........6...

Notice from spectre at time = 1.34358 ns during transient analysis `RiseTime-000_RiseTime', during task `MDLControl'.
    Found trapezoidal ringing on node Vd:p.

........9........8........7........6....

Notice from spectre at time = 1.40358 ns during transient analysis `RiseTime-000_RiseTime', during task `MDLControl'.
    Found trapezoidal ringing on node Vd:p.

........9........8........7........6......

Notice from spectre at time = 1.46358 ns during transient analysis `RiseTime-000_RiseTime', during task `MDLControl'.
    Found trapezoidal ringing on node Vd:p.
        Further occurrences of this notice will be suppressed.

........9........8........7........6........5........4........3........2........1........0
Number of accepted tran steps =             89

Notice from spectre during transient analysis `RiseTime-000_RiseTime', during task `MDLControl'.
    Trapezoidal ringing is detected during tran analysis.
        Please use method=trap for better results and performance.


Maximum value achieved for any signal of each quantity: 
V: V(X1.M_i_2__m0_x2__m0:sbnode) = 1 V
I: I(Vd:p) = 156.8 uA
If your circuit contains signals of the same quantity that are vastly different in size (such as high voltage circuitry combined with low voltage control circuitry), you should consider specifying global option `bin_relref=yes'.

~~~~~~~~~~~~~~~~~~~~~~~~~~~~~~~~~
Post-Transient Simulation Summary
~~~~~~~~~~~~~~~~~~~~~~~~~~~~~~~~~
   -   To further speed up simulation, consider
          add ++aps on command line
~~~~~~~~~~~~~~~~~~~~~~~~~~~~~~~~~


During simulation, the CPU load for active processors is :
        Spectre  0 (73.0 %)      1 (41.7 %)      2 (100.0 %)     3 (100.0 %)
        Other   
Initial condition solution time: CPU = 815 us, elapsed = 817.06 us.
Intrinsic tran analysis time:    CPU = 14.972 ms, elapsed = 44.6761 ms.
Total time required for tran analysis `RiseTime-000_RiseTime': CPU = 17.252 ms, elapsed = 46.9539 ms.
Time accumulated: CPU = 280.649 ms, elapsed = 419.86 ms.
Peak resident memory used = 64.2 Mbytes.


Notice from spectre during task `MDLControl'.
    26 notices suppressed.


****************************************************************
Transient Analysis `RiseTime-001_RiseTime': time = (0 s -> 3 ns)
****************************************************************
DC simulation time: CPU = 516 us, elapsed = 516.891 us.

Notice from spectre during transient analysis `RiseTime-001_RiseTime', during task `MDLControl'.
    No outputs were found. Loosening output filter criterion to `allpub'.


Opening the PSF file NAND.raw/RiseTime-001_RiseTime.tran.tran ...
Important parameter values:
    start = 0 s
    outputstart = 0 s
    stop = 3 ns
    step = 3 ps
    maxstep = 60 ps
    ic = all
    useprevic = no
    skipdc = no
    reltol = 1e-03
    abstol(V) = 1 uV
    abstol(I) = 1 pA
    temp = 27 C
    tnom = 27 C
    tempeffects = all
    errpreset = moderate
    method = traponly
    lteratio = 3.5
    relref = sigglobal
    cmin = 0 F
    gmin = 1 pS


Output and IC/nodeset summary:
                 save   3       (current)
                 save   6       (voltage)

........9........8........7........6

Notice from spectre at time = 1.2682 ns during transient analysis `RiseTime-001_RiseTime', during task `MDLControl'.
    Found trapezoidal ringing on node Va:p.

........9........8........7........6..

Notice from spectre at time = 1.3282 ns during transient analysis `RiseTime-001_RiseTime', during task `MDLControl'.
    Found trapezoidal ringing on node Va:p.

........9........8........7........6....

Notice from spectre at time = 1.3882 ns during transient analysis `RiseTime-001_RiseTime', during task `MDLControl'.
    Found trapezoidal ringing on node Va:p.

........9........8........7........6......

Notice from spectre at time = 1.4482 ns during transient analysis `RiseTime-001_RiseTime', during task `MDLControl'.
    Found trapezoidal ringing on node Va:p.

........9........8........7........6.......

Notice from spectre at time = 1.5082 ns during transient analysis `RiseTime-001_RiseTime', during task `MDLControl'.
    Found trapezoidal ringing on node Va:p.
        Further occurrences of this notice will be suppressed.

........9........8........7........6........5........4........3........2........1........0
Number of accepted tran steps =             87

Notice from spectre during transient analysis `RiseTime-001_RiseTime', during task `MDLControl'.
    Trapezoidal ringing is detected during tran analysis.
        Please use method=trap for better results and performance.


Maximum value achieved for any signal of each quantity: 
V: V(X1.M_i_3__m0_x2__m1:sbnode) = 1 V
I: I(Vd:p) = 99.07 uA
If your circuit contains signals of the same quantity that are vastly different in size (such as high voltage circuitry combined with low voltage control circuitry), you should consider specifying global option `bin_relref=yes'.

~~~~~~~~~~~~~~~~~~~~~~~~~~~~~~~~~
Post-Transient Simulation Summary
~~~~~~~~~~~~~~~~~~~~~~~~~~~~~~~~~
   -   To further speed up simulation, consider
          add ++aps on command line
~~~~~~~~~~~~~~~~~~~~~~~~~~~~~~~~~


During simulation, the CPU load for active processors is :
        Spectre  0 (68.9 %)      1 (39.1 %)      2 (100.0 %)     3 (100.0 %)
        Other   
Initial condition solution time: CPU = 568 us, elapsed = 570.059 us.
Intrinsic tran analysis time:    CPU = 14.387 ms, elapsed = 33.149 ms.
Total time required for tran analysis `RiseTime-001_RiseTime': CPU = 16.162 ms, elapsed = 34.925 ms.
Time accumulated: CPU = 304.136 ms, elapsed = 507.837 ms.
Peak resident memory used = 64.4 Mbytes.


Notice from spectre during task `MDLControl'.
    25 notices suppressed.


****************************************************************
Transient Analysis `RiseTime-002_RiseTime': time = (0 s -> 3 ns)
****************************************************************
DC simulation time: CPU = 466 us, elapsed = 466.108 us.

Notice from spectre during transient analysis `RiseTime-002_RiseTime', during task `MDLControl'.
    No outputs were found. Loosening output filter criterion to `allpub'.


Opening the PSF file NAND.raw/RiseTime-002_RiseTime.tran.tran ...
Important parameter values:
    start = 0 s
    outputstart = 0 s
    stop = 3 ns
    step = 3 ps
    maxstep = 60 ps
    ic = all
    useprevic = no
    skipdc = no
    reltol = 1e-03
    abstol(V) = 1 uV
    abstol(I) = 1 pA
    temp = 27 C
    tnom = 27 C
    tempeffects = all
    errpreset = moderate
    method = traponly
    lteratio = 3.5
    relref = sigglobal
    cmin = 0 F
    gmin = 1 pS


Output and IC/nodeset summary:
                 save   3       (current)
                 save   6       (voltage)

........9........8........7........6.....

Notice from spectre at time = 1.42316 ns during transient analysis `RiseTime-002_RiseTime', during task `MDLControl'.
    Found trapezoidal ringing on node Va:p.

........9........8........7........6.......

Notice from spectre at time = 1.48316 ns during transient analysis `RiseTime-002_RiseTime', during task `MDLControl'.
    Found trapezoidal ringing on node Va:p.

........9........8........7........6........

Notice from spectre at time = 1.54316 ns during transient analysis `RiseTime-002_RiseTime', during task `MDLControl'.
    Found trapezoidal ringing on node Va:p.

........9........8........7........6........5.

Notice from spectre at time = 1.60316 ns during transient analysis `RiseTime-002_RiseTime', during task `MDLControl'.
    Found trapezoidal ringing on node Va:p.

........9........8........7........6........5...

Notice from spectre at time = 1.66316 ns during transient analysis `RiseTime-002_RiseTime', during task `MDLControl'.
    Found trapezoidal ringing on node Va:p.
        Further occurrences of this notice will be suppressed.

........9........8........7........6........5........4........3........2........1........0
Number of accepted tran steps =             89

Notice from spectre during transient analysis `RiseTime-002_RiseTime', during task `MDLControl'.
    Trapezoidal ringing is detected during tran analysis.
        Please use method=trap for better results and performance.


Maximum value achieved for any signal of each quantity: 
V: V(X1.M_i_3__m0_x2__m1:sbnode) = 1 V
I: I(Vd:p) = 69.14 uA
If your circuit contains signals of the same quantity that are vastly different in size (such as high voltage circuitry combined with low voltage control circuitry), you should consider specifying global option `bin_relref=yes'.

~~~~~~~~~~~~~~~~~~~~~~~~~~~~~~~~~
Post-Transient Simulation Summary
~~~~~~~~~~~~~~~~~~~~~~~~~~~~~~~~~
   -   To further speed up simulation, consider
          add ++aps on command line
~~~~~~~~~~~~~~~~~~~~~~~~~~~~~~~~~


During simulation, the CPU load for active processors is :
        Spectre  0 (67.9 %)      1 (42.9 %)      2 (100.0 %)     3 (100.0 %)
        Other   
Initial condition solution time: CPU = 507 us, elapsed = 514.984 us.
Intrinsic tran analysis time:    CPU = 16.382 ms, elapsed = 40.9131 ms.
Total time required for tran analysis `RiseTime-002_RiseTime': CPU = 18.11 ms, elapsed = 42.836 ms.
Time accumulated: CPU = 329.678 ms, elapsed = 616.503 ms.
Peak resident memory used = 64.4 Mbytes.


Notice from spectre during task `MDLControl'.
    23 notices suppressed.


****************************************************************
Transient Analysis `RiseTime-003_RiseTime': time = (0 s -> 3 ns)
****************************************************************
DC simulation time: CPU = 519 us, elapsed = 519.037 us.

Notice from spectre during transient analysis `RiseTime-003_RiseTime', during task `MDLControl'.
    No outputs were found. Loosening output filter criterion to `allpub'.


Opening the PSF file NAND.raw/RiseTime-003_RiseTime.tran.tran ...
Important parameter values:
    start = 0 s
    outputstart = 0 s
    stop = 3 ns
    step = 3 ps
    maxstep = 60 ps
    ic = all
    useprevic = no
    skipdc = no
    reltol = 1e-03
    abstol(V) = 1 uV
    abstol(I) = 1 pA
    temp = 27 C
    tnom = 27 C
    tempeffects = all
    errpreset = moderate
    method = traponly
    lteratio = 3.5
    relref = sigglobal
    cmin = 0 F
    gmin = 1 pS


Output and IC/nodeset summary:
                 save   3       (current)
                 save   6       (voltage)

........9........8........7........6........5.

Notice from spectre at time = 1.58213 ns during transient analysis `RiseTime-003_RiseTime', during task `MDLControl'.
    Found trapezoidal ringing on node Vd:p.

........9........8........7........6........5..

Notice from spectre at time = 1.64213 ns during transient analysis `RiseTime-003_RiseTime', during task `MDLControl'.
    Found trapezoidal ringing on node Vd:p.

........9........8........7........6........5....

Notice from spectre at time = 1.70213 ns during transient analysis `RiseTime-003_RiseTime', during task `MDLControl'.
    Found trapezoidal ringing on node Vd:p.

........9........8........7........6........5......

Notice from spectre at time = 1.76213 ns during transient analysis `RiseTime-003_RiseTime', during task `MDLControl'.
    Found trapezoidal ringing on node Vd:p.

........9........8........7........6........5........

Notice from spectre at time = 1.82213 ns during transient analysis `RiseTime-003_RiseTime', during task `MDLControl'.
    Found trapezoidal ringing on node Vd:p.
        Further occurrences of this notice will be suppressed.

........9........8........7........6........5........4........3........2........1........0
Number of accepted tran steps =             90

Notice from spectre during transient analysis `RiseTime-003_RiseTime', during task `MDLControl'.
    Trapezoidal ringing is detected during tran analysis.
        Please use method=trap for better results and performance.


Maximum value achieved for any signal of each quantity: 
V: V(X1.M_i_3__m0_x2__m1:sbnode) = 1 V
I: I(Vd:p) = 41.43 uA
If your circuit contains signals of the same quantity that are vastly different in size (such as high voltage circuitry combined with low voltage control circuitry), you should consider specifying global option `bin_relref=yes'.

~~~~~~~~~~~~~~~~~~~~~~~~~~~~~~~~~
Post-Transient Simulation Summary
~~~~~~~~~~~~~~~~~~~~~~~~~~~~~~~~~
   -   To further speed up simulation, consider
          add ++aps on command line
~~~~~~~~~~~~~~~~~~~~~~~~~~~~~~~~~


During simulation, the CPU load for active processors is :
        Spectre  0 (65.2 %)      1 (42.4 %)      2 (100.0 %)     3 (100.0 %)
        Other   
Initial condition solution time: CPU = 579 us, elapsed = 782.967 us.
Intrinsic tran analysis time:    CPU = 15.13 ms, elapsed = 37.3971 ms.
Total time required for tran analysis `RiseTime-003_RiseTime': CPU = 17.256 ms, elapsed = 40.854 ms.
Time accumulated: CPU = 354.222 ms, elapsed = 714.306 ms.
Peak resident memory used = 64.4 Mbytes.


Notice from spectre during task `MDLControl'.
    20 notices suppressed.


****************************************************************
Transient Analysis `RiseTime-004_RiseTime': time = (0 s -> 3 ns)
****************************************************************
DC simulation time: CPU = 475 us, elapsed = 475.883 us.

Notice from spectre during transient analysis `RiseTime-004_RiseTime', during task `MDLControl'.
    No outputs were found. Loosening output filter criterion to `allpub'.


Opening the PSF file NAND.raw/RiseTime-004_RiseTime.tran.tran ...
Important parameter values:
    start = 0 s
    outputstart = 0 s
    stop = 3 ns
    step = 3 ps
    maxstep = 60 ps
    ic = all
    useprevic = no
    skipdc = no
    reltol = 1e-03
    abstol(V) = 1 uV
    abstol(I) = 1 pA
    temp = 27 C
    tnom = 27 C
    tempeffects = all
    errpreset = moderate
    method = traponly
    lteratio = 3.5
    relref = sigglobal
    cmin = 0 F
    gmin = 1 pS


Output and IC/nodeset summary:
                 save   3       (current)
                 save   6       (voltage)

........9........8........7........6........5........4.......

Notice from spectre at time = 2.07833 ns during transient analysis `RiseTime-004_RiseTime', during task `MDLControl'.
    Found trapezoidal ringing on node Vd:p.

........9........8........7........6........5........4........

Notice from spectre at time = 2.13833 ns during transient analysis `RiseTime-004_RiseTime', during task `MDLControl'.
    Found trapezoidal ringing on node Vd:p.

........9........8........7........6........5........4........3.

Notice from spectre at time = 2.19833 ns during transient analysis `RiseTime-004_RiseTime', during task `MDLControl'.
    Found trapezoidal ringing on node Vd:p.

........9........8........7........6........5........4........3...

Notice from spectre at time = 2.25833 ns during transient analysis `RiseTime-004_RiseTime', during task `MDLControl'.
    Found trapezoidal ringing on node Vd:p.

........9........8........7........6........5........4........3.....

Notice from spectre at time = 2.31833 ns during transient analysis `RiseTime-004_RiseTime', during task `MDLControl'.
    Found trapezoidal ringing on node Vd:p.
        Further occurrences of this notice will be suppressed.

........9........8........7........6........5........4........3........2........1........0
Number of accepted tran steps =             83

Notice from spectre during transient analysis `RiseTime-004_RiseTime', during task `MDLControl'.
    Trapezoidal ringing is detected during tran analysis.
        Please use method=trap for better results and performance.


Maximum value achieved for any signal of each quantity: 
V: V(out) = 1 V
I: I(Vd:p) = 25.24 uA
If your circuit contains signals of the same quantity that are vastly different in size (such as high voltage circuitry combined with low voltage control circuitry), you should consider specifying global option `bin_relref=yes'.

~~~~~~~~~~~~~~~~~~~~~~~~~~~~~~~~~
Post-Transient Simulation Summary
~~~~~~~~~~~~~~~~~~~~~~~~~~~~~~~~~
   -   To further speed up simulation, consider
          add ++aps on command line
~~~~~~~~~~~~~~~~~~~~~~~~~~~~~~~~~


During simulation, the CPU load for active processors is :
        Spectre  0 (63.2 %)      1 (40.0 %)      2 (100.0 %)     3 (100.0 %)
        Other   
Initial condition solution time: CPU = 517 us, elapsed = 517.845 us.
Intrinsic tran analysis time:    CPU = 14.829 ms, elapsed = 32.5599 ms.
Total time required for tran analysis `RiseTime-004_RiseTime': CPU = 16.478 ms, elapsed = 34.2078 ms.
Time accumulated: CPU = 377.949 ms, elapsed = 809.254 ms.
Peak resident memory used = 64.4 Mbytes.


Notice from spectre during task `MDLControl'.
    12 notices suppressed.


****************************************************************
Transient Analysis `RiseTime-005_RiseTime': time = (0 s -> 3 ns)
****************************************************************
DC simulation time: CPU = 490 us, elapsed = 489.95 us.

Notice from spectre during transient analysis `RiseTime-005_RiseTime', during task `MDLControl'.
    No outputs were found. Loosening output filter criterion to `allpub'.


Opening the PSF file NAND.raw/RiseTime-005_RiseTime.tran.tran ...
Important parameter values:
    start = 0 s
    outputstart = 0 s
    stop = 3 ns
    step = 3 ps
    maxstep = 60 ps
    ic = all
    useprevic = no
    skipdc = no
    reltol = 1e-03
    abstol(V) = 1 uV
    abstol(I) = 1 pA
    temp = 27 C
    tnom = 27 C
    tempeffects = all
    errpreset = moderate
    method = traponly
    lteratio = 3.5
    relref = sigglobal
    cmin = 0 F
    gmin = 1 pS


Output and IC/nodeset summary:
                 save   3       (current)
                 save   6       (voltage)

........9........8........7........6........5........4......

Notice from spectre at time = 2.06634 ns during transient analysis `RiseTime-005_RiseTime', during task `MDLControl'.
    Found trapezoidal ringing on node Vd:p.

........9........8........7........6........5........4........

Notice from spectre at time = 2.12634 ns during transient analysis `RiseTime-005_RiseTime', during task `MDLControl'.
    Found trapezoidal ringing on node Vd:p.

........9........8........7........6........5........4........3........2.

Notice from spectre at time = 2.49806 ns during transient analysis `RiseTime-005_RiseTime', during task `MDLControl'.
    Found trapezoidal ringing on node Vd:p.

........9........8........7........6........5........4........3........2...

Notice from spectre at time = 2.55806 ns during transient analysis `RiseTime-005_RiseTime', during task `MDLControl'.
    Found trapezoidal ringing on node Vd:p.

........9........8........7........6........5........4........3........2.....

Notice from spectre at time = 2.61806 ns during transient analysis `RiseTime-005_RiseTime', during task `MDLControl'.
    Found trapezoidal ringing on node Vd:p.
        Further occurrences of this notice will be suppressed.

........9........8........7........6........5........4........3........2........1........0
Number of accepted tran steps =             73

Notice from spectre during transient analysis `RiseTime-005_RiseTime', during task `MDLControl'.
    Trapezoidal ringing is detected during tran analysis.
        Please use method=trap for better results and performance.


Maximum value achieved for any signal of each quantity: 
V: V(X1.M_i_3__m0_x2__m1:sbnode) = 1 V
I: I(Vd:p) = 14.24 uA
If your circuit contains signals of the same quantity that are vastly different in size (such as high voltage circuitry combined with low voltage control circuitry), you should consider specifying global option `bin_relref=yes'.

~~~~~~~~~~~~~~~~~~~~~~~~~~~~~~~~~
Post-Transient Simulation Summary
~~~~~~~~~~~~~~~~~~~~~~~~~~~~~~~~~
   -   To further speed up simulation, consider
          add ++aps on command line
~~~~~~~~~~~~~~~~~~~~~~~~~~~~~~~~~


During simulation, the CPU load for active processors is :
        Spectre  0 (62.8 %)      1 (40.7 %)      2 (100.0 %)     3 (98.9 %)
        Other   
Initial condition solution time: CPU = 536 us, elapsed = 542.879 us.
Intrinsic tran analysis time:    CPU = 16.152 ms, elapsed = 43.5941 ms.
Total time required for tran analysis `RiseTime-005_RiseTime': CPU = 17.958 ms, elapsed = 45.501 ms.
Time accumulated: CPU = 403.062 ms, elapsed = 910.322 ms.
Peak resident memory used = 64.4 Mbytes.


Notice from spectre during task `MDLControl'.
    7 notices suppressed.


****************************************************************
Transient Analysis `RiseTime-006_RiseTime': time = (0 s -> 3 ns)
****************************************************************
DC simulation time: CPU = 488 us, elapsed = 488.997 us.

Notice from spectre during transient analysis `RiseTime-006_RiseTime', during task `MDLControl'.
    No outputs were found. Loosening output filter criterion to `allpub'.


Opening the PSF file NAND.raw/RiseTime-006_RiseTime.tran.tran ...
Important parameter values:
    start = 0 s
    outputstart = 0 s
    stop = 3 ns
    step = 3 ps
    maxstep = 60 ps
    ic = all
    useprevic = no
    skipdc = no
    reltol = 1e-03
    abstol(V) = 1 uV
    abstol(I) = 1 pA
    temp = 27 C
    tnom = 27 C
    tempeffects = all
    errpreset = moderate
    method = traponly
    lteratio = 3.5
    relref = sigglobal
    cmin = 0 F
    gmin = 1 pS


Output and IC/nodeset summary:
                 save   3       (current)
                 save   6       (voltage)

........9........8........7.......

Notice from spectre at time = 1.18226 ns during transient analysis `RiseTime-006_RiseTime', during task `MDLControl'.
    Found trapezoidal ringing on node Vb:p.

........9........8........7........

Notice from spectre at time = 1.24226 ns during transient analysis `RiseTime-006_RiseTime', during task `MDLControl'.
    Found trapezoidal ringing on node Vb:p.

........9........8........7........6.

Notice from spectre at time = 1.30226 ns during transient analysis `RiseTime-006_RiseTime', during task `MDLControl'.
    Found trapezoidal ringing on node Vb:p.

........9........8........7........6...

Notice from spectre at time = 1.36226 ns during transient analysis `RiseTime-006_RiseTime', during task `MDLControl'.
    Found trapezoidal ringing on node Vb:p.

........9........8........7........6.....

Notice from spectre at time = 1.42226 ns during transient analysis `RiseTime-006_RiseTime', during task `MDLControl'.
    Found trapezoidal ringing on node Vb:p.
        Further occurrences of this notice will be suppressed.

........9........8........7........6........5........4........3........2........1........0
Number of accepted tran steps =             67

Notice from spectre during transient analysis `RiseTime-006_RiseTime', during task `MDLControl'.
    Trapezoidal ringing is detected during tran analysis.
        Please use method=trap for better results and performance.


Maximum value achieved for any signal of each quantity: 
V: V(X1.M_i_3__m0_x2__m1:sbnode) = 1 V
I: I(Vd:p) = 8.75 uA
If your circuit contains signals of the same quantity that are vastly different in size (such as high voltage circuitry combined with low voltage control circuitry), you should consider specifying global option `bin_relref=yes'.

~~~~~~~~~~~~~~~~~~~~~~~~~~~~~~~~~
Post-Transient Simulation Summary
~~~~~~~~~~~~~~~~~~~~~~~~~~~~~~~~~
   -   To further speed up simulation, consider
          add ++aps on command line
~~~~~~~~~~~~~~~~~~~~~~~~~~~~~~~~~


During simulation, the CPU load for active processors is :
        Spectre  0 (61.3 %)      1 (45.7 %)      2 (100.0 %)     3 (92.7 %)
        Other   
Initial condition solution time: CPU = 528 us, elapsed = 530.005 us.
Intrinsic tran analysis time:    CPU = 11.434 ms, elapsed = 26.0801 ms.
Total time required for tran analysis `RiseTime-006_RiseTime': CPU = 13.347 ms, elapsed = 27.9951 ms.
Time accumulated: CPU = 423.573 ms, elapsed = 993.036 ms.
Peak resident memory used = 64.4 Mbytes.


Notice from spectre during task `MDLControl'.
    7 notices suppressed.


****************************************************************
Transient Analysis `RiseTime-007_RiseTime': time = (0 s -> 3 ns)
****************************************************************
DC simulation time: CPU = 494 us, elapsed = 494.003 us.

Notice from spectre during transient analysis `RiseTime-007_RiseTime', during task `MDLControl'.
    No outputs were found. Loosening output filter criterion to `allpub'.


Opening the PSF file NAND.raw/RiseTime-007_RiseTime.tran.tran ...
Important parameter values:
    start = 0 s
    outputstart = 0 s
    stop = 3 ns
    step = 3 ps
    maxstep = 60 ps
    ic = all
    useprevic = no
    skipdc = no
    reltol = 1e-03
    abstol(V) = 1 uV
    abstol(I) = 1 pA
    temp = 27 C
    tnom = 27 C
    tempeffects = all
    errpreset = moderate
    method = traponly
    lteratio = 3.5
    relref = sigglobal
    cmin = 0 F
    gmin = 1 pS


Output and IC/nodeset summary:
                 save   3       (current)
                 save   6       (voltage)

........9........8........7........

Notice from spectre at time = 1.22442 ns during transient analysis `RiseTime-007_RiseTime', during task `MDLControl'.
    Found trapezoidal ringing on node Vb:p.

........9........8........7........6.

Notice from spectre at time = 1.28442 ns during transient analysis `RiseTime-007_RiseTime', during task `MDLControl'.
    Found trapezoidal ringing on node Vb:p.

........9........8........7........6...

Notice from spectre at time = 1.34442 ns during transient analysis `RiseTime-007_RiseTime', during task `MDLControl'.
    Found trapezoidal ringing on node Vb:p.

........9........8........7........6....

Notice from spectre at time = 1.40442 ns during transient analysis `RiseTime-007_RiseTime', during task `MDLControl'.
    Found trapezoidal ringing on node Vb:p.

........9........8........7........6......

Notice from spectre at time = 1.46442 ns during transient analysis `RiseTime-007_RiseTime', during task `MDLControl'.
    Found trapezoidal ringing on node Vb:p.
        Further occurrences of this notice will be suppressed.

........9........8........7........6........5........4........3........2........1........0
Number of accepted tran steps =             88

Notice from spectre during transient analysis `RiseTime-007_RiseTime', during task `MDLControl'.
    Trapezoidal ringing is detected during tran analysis.
        Please use method=trap for better results and performance.


Maximum value achieved for any signal of each quantity: 
V: V(X1.M_i_2__m0_x2__m0:sbnode) = 1 V
I: I(Vd:p) = 164.2 uA
If your circuit contains signals of the same quantity that are vastly different in size (such as high voltage circuitry combined with low voltage control circuitry), you should consider specifying global option `bin_relref=yes'.

~~~~~~~~~~~~~~~~~~~~~~~~~~~~~~~~~
Post-Transient Simulation Summary
~~~~~~~~~~~~~~~~~~~~~~~~~~~~~~~~~
   -   To further speed up simulation, consider
          add ++aps on command line
~~~~~~~~~~~~~~~~~~~~~~~~~~~~~~~~~


During simulation, the CPU load for active processors is :
        Spectre  0 (59.4 %)      1 (51.9 %)      2 (100.0 %)     3 (85.0 %)
        Other   
Initial condition solution time: CPU = 536 us, elapsed = 536.919 us.
Intrinsic tran analysis time:    CPU = 13.915 ms, elapsed = 31.1038 ms.
Total time required for tran analysis `RiseTime-007_RiseTime': CPU = 15.693 ms, elapsed = 32.9208 ms.
Time accumulated: CPU = 448.372 ms, elapsed = 1.11572 s.
Peak resident memory used = 64.5 Mbytes.


Notice from spectre during task `MDLControl'.
    26 notices suppressed.


****************************************************************
Transient Analysis `RiseTime-008_RiseTime': time = (0 s -> 3 ns)
****************************************************************
DC simulation time: CPU = 511 us, elapsed = 512.123 us.

Notice from spectre during transient analysis `RiseTime-008_RiseTime', during task `MDLControl'.
    No outputs were found. Loosening output filter criterion to `allpub'.


Opening the PSF file NAND.raw/RiseTime-008_RiseTime.tran.tran ...
Important parameter values:
    start = 0 s
    outputstart = 0 s
    stop = 3 ns
    step = 3 ps
    maxstep = 60 ps
    ic = all
    useprevic = no
    skipdc = no
    reltol = 1e-03
    abstol(V) = 1 uV
    abstol(I) = 1 pA
    temp = 27 C
    tnom = 27 C
    tempeffects = all
    errpreset = moderate
    method = traponly
    lteratio = 3.5
    relref = sigglobal
    cmin = 0 F
    gmin = 1 pS


Output and IC/nodeset summary:
                 save   3       (current)
                 save   6       (voltage)

........9........8........7.......

Notice from spectre at time = 1.13873 ns during transient analysis `RiseTime-008_RiseTime', during task `MDLControl'.
    Found trapezoidal ringing on node Va:p.
Notice from spectre at time = 1.1523 ns during transient analysis `RiseTime-008_RiseTime', during task `MDLControl'.
    Found trapezoidal ringing on node Va:p.

........9........8........7........

Notice from spectre at time = 1.16916 ns during transient analysis `RiseTime-008_RiseTime', during task `MDLControl'.
    Found trapezoidal ringing on node Va:p.
Notice from spectre at time = 1.18929 ns during transient analysis `RiseTime-008_RiseTime', during task `MDLControl'.
    Found trapezoidal ringing on node Va:p.

........9........8........7........6

Notice from spectre at time = 1.21255 ns during transient analysis `RiseTime-008_RiseTime', during task `MDLControl'.
    Found trapezoidal ringing on node Va:p.
        Further occurrences of this notice will be suppressed.

........9........8........7........6........5........4........3........2........1........0
Number of accepted tran steps =             99

Notice from spectre during transient analysis `RiseTime-008_RiseTime', during task `MDLControl'.
    Trapezoidal ringing is detected during tran analysis.
        Please use method=trap for better results and performance.


Maximum value achieved for any signal of each quantity: 
V: V(X1.M_i_3__m0_x2__m1:sbnode) = 1 V
I: I(Vd:p) = 105.4 uA
If your circuit contains signals of the same quantity that are vastly different in size (such as high voltage circuitry combined with low voltage control circuitry), you should consider specifying global option `bin_relref=yes'.

~~~~~~~~~~~~~~~~~~~~~~~~~~~~~~~~~
Post-Transient Simulation Summary
~~~~~~~~~~~~~~~~~~~~~~~~~~~~~~~~~
   -   To further speed up simulation, consider
          add ++aps on command line
~~~~~~~~~~~~~~~~~~~~~~~~~~~~~~~~~


During simulation, the CPU load for active processors is :
        Spectre  0 (58.8 %)      1 (55.7 %)      2 (100.0 %)     3 (81.0 %)
        Other   
Initial condition solution time: CPU = 555 us, elapsed = 557.184 us.
Intrinsic tran analysis time:    CPU = 15.331 ms, elapsed = 31.1551 ms.
Total time required for tran analysis `RiseTime-008_RiseTime': CPU = 17.229 ms, elapsed = 33.052 ms.
Time accumulated: CPU = 472.797 ms, elapsed = 1.20649 s.
Peak resident memory used = 64.5 Mbytes.


Notice from spectre during task `MDLControl'.
    43 notices suppressed.


****************************************************************
Transient Analysis `RiseTime-009_RiseTime': time = (0 s -> 3 ns)
****************************************************************
DC simulation time: CPU = 473 us, elapsed = 473.976 us.

Notice from spectre during transient analysis `RiseTime-009_RiseTime', during task `MDLControl'.
    No outputs were found. Loosening output filter criterion to `allpub'.


Opening the PSF file NAND.raw/RiseTime-009_RiseTime.tran.tran ...
Important parameter values:
    start = 0 s
    outputstart = 0 s
    stop = 3 ns
    step = 3 ps
    maxstep = 60 ps
    ic = all
    useprevic = no
    skipdc = no
    reltol = 1e-03
    abstol(V) = 1 uV
    abstol(I) = 1 pA
    temp = 27 C
    tnom = 27 C
    tempeffects = all
    errpreset = moderate
    method = traponly
    lteratio = 3.5
    relref = sigglobal
    cmin = 0 F
    gmin = 1 pS


Output and IC/nodeset summary:
                 save   3       (current)
                 save   6       (voltage)

........9........8........7........6........

Notice from spectre at time = 1.51384 ns during transient analysis `RiseTime-009_RiseTime', during task `MDLControl'.
    Found trapezoidal ringing on node Vd:p.

........9........8........7........6........5

Notice from spectre at time = 1.57384 ns during transient analysis `RiseTime-009_RiseTime', during task `MDLControl'.
    Found trapezoidal ringing on node Vd:p.

........9........8........7........6........5..

Notice from spectre at time = 1.63384 ns during transient analysis `RiseTime-009_RiseTime', during task `MDLControl'.
    Found trapezoidal ringing on node Vd:p.

........9........8........7........6........5....

Notice from spectre at time = 1.69384 ns during transient analysis `RiseTime-009_RiseTime', during task `MDLControl'.
    Found trapezoidal ringing on node Vd:p.

........9........8........7........6........5......

Notice from spectre at time = 1.75384 ns during transient analysis `RiseTime-009_RiseTime', during task `MDLControl'.
    Found trapezoidal ringing on node Vd:p.
        Further occurrences of this notice will be suppressed.

........9........8........7........6........5........4........3........2........1........0
Number of accepted tran steps =             88

Notice from spectre during transient analysis `RiseTime-009_RiseTime', during task `MDLControl'.
    Trapezoidal ringing is detected during tran analysis.
        Please use method=trap for better results and performance.


Maximum value achieved for any signal of each quantity: 
V: V(X1.M_i_3__m0_x2__m1:sbnode) = 1 V
I: I(Vd:p) = 72.3 uA
If your circuit contains signals of the same quantity that are vastly different in size (such as high voltage circuitry combined with low voltage control circuitry), you should consider specifying global option `bin_relref=yes'.

~~~~~~~~~~~~~~~~~~~~~~~~~~~~~~~~~
Post-Transient Simulation Summary
~~~~~~~~~~~~~~~~~~~~~~~~~~~~~~~~~
   -   To further speed up simulation, consider
          add ++aps on command line
~~~~~~~~~~~~~~~~~~~~~~~~~~~~~~~~~


During simulation, the CPU load for active processors is :
        Spectre  0 (58.9 %)      1 (56.1 %)      2 (100.0 %)     3 (80.6 %)
        Other   
Initial condition solution time: CPU = 514 us, elapsed = 515.938 us.
Intrinsic tran analysis time:    CPU = 14.477 ms, elapsed = 31.2722 ms.
Total time required for tran analysis `RiseTime-009_RiseTime': CPU = 16.371 ms, elapsed = 33.1659 ms.
Time accumulated: CPU = 496.362 ms, elapsed = 1.29833 s.
Peak resident memory used = 64.5 Mbytes.


Notice from spectre during task `MDLControl'.
    21 notices suppressed.


****************************************************************
Transient Analysis `RiseTime-010_RiseTime': time = (0 s -> 3 ns)
****************************************************************
DC simulation time: CPU = 494 us, elapsed = 495.911 us.

Notice from spectre during transient analysis `RiseTime-010_RiseTime', during task `MDLControl'.
    No outputs were found. Loosening output filter criterion to `allpub'.


Opening the PSF file NAND.raw/RiseTime-010_RiseTime.tran.tran ...
Important parameter values:
    start = 0 s
    outputstart = 0 s
    stop = 3 ns
    step = 3 ps
    maxstep = 60 ps
    ic = all
    useprevic = no
    skipdc = no
    reltol = 1e-03
    abstol(V) = 1 uV
    abstol(I) = 1 pA
    temp = 27 C
    tnom = 27 C
    tempeffects = all
    errpreset = moderate
    method = traponly
    lteratio = 3.5
    relref = sigglobal
    cmin = 0 F
    gmin = 1 pS


Output and IC/nodeset summary:
                 save   3       (current)
                 save   6       (voltage)

........9........8........7........6........5.

Notice from spectre at time = 1.59843 ns during transient analysis `RiseTime-010_RiseTime', during task `MDLControl'.
    Found trapezoidal ringing on node Vd:p.

........9........8........7........6........5...

Notice from spectre at time = 1.65843 ns during transient analysis `RiseTime-010_RiseTime', during task `MDLControl'.
    Found trapezoidal ringing on node Vd:p.

........9........8........7........6........5.....

Notice from spectre at time = 1.71843 ns during transient analysis `RiseTime-010_RiseTime', during task `MDLControl'.
    Found trapezoidal ringing on node Vd:p.

........9........8........7........6........5.......

Notice from spectre at time = 1.77843 ns during transient analysis `RiseTime-010_RiseTime', during task `MDLControl'.
    Found trapezoidal ringing on node Vd:p.

........9........8........7........6........5........

Notice from spectre at time = 1.83843 ns during transient analysis `RiseTime-010_RiseTime', during task `MDLControl'.
    Found trapezoidal ringing on node Vd:p.
        Further occurrences of this notice will be suppressed.

........9........8........7........6........5........4........3........2........1........0
Number of accepted tran steps =             86

Notice from spectre during transient analysis `RiseTime-010_RiseTime', during task `MDLControl'.
    Trapezoidal ringing is detected during tran analysis.
        Please use method=trap for better results and performance.


Maximum value achieved for any signal of each quantity: 
V: V(X1.M_i_3__m0_x2__m1:sbnode) = 1 V
I: I(Vd:p) = 44.52 uA
If your circuit contains signals of the same quantity that are vastly different in size (such as high voltage circuitry combined with low voltage control circuitry), you should consider specifying global option `bin_relref=yes'.

~~~~~~~~~~~~~~~~~~~~~~~~~~~~~~~~~
Post-Transient Simulation Summary
~~~~~~~~~~~~~~~~~~~~~~~~~~~~~~~~~
   -   To further speed up simulation, consider
          add ++aps on command line
~~~~~~~~~~~~~~~~~~~~~~~~~~~~~~~~~


During simulation, the CPU load for active processors is :
        Spectre  0 (58.2 %)      1 (54.9 %)      2 (100.0 %)     3 (82.0 %)
        Other   
Initial condition solution time: CPU = 535 us, elapsed = 536.919 us.
Intrinsic tran analysis time:    CPU = 14.598 ms, elapsed = 30.277 ms.
Total time required for tran analysis `RiseTime-010_RiseTime': CPU = 16.36 ms, elapsed = 32.069 ms.
Time accumulated: CPU = 519.994 ms, elapsed = 1.38892 s.
Peak resident memory used = 64.5 Mbytes.


Notice from spectre during task `MDLControl'.
    20 notices suppressed.


****************************************************************
Transient Analysis `RiseTime-011_RiseTime': time = (0 s -> 3 ns)
****************************************************************
DC simulation time: CPU = 519 us, elapsed = 519.991 us.

Notice from spectre during transient analysis `RiseTime-011_RiseTime', during task `MDLControl'.
    No outputs were found. Loosening output filter criterion to `allpub'.


Opening the PSF file NAND.raw/RiseTime-011_RiseTime.tran.tran ...
Important parameter values:
    start = 0 s
    outputstart = 0 s
    stop = 3 ns
    step = 3 ps
    maxstep = 60 ps
    ic = all
    useprevic = no
    skipdc = no
    reltol = 1e-03
    abstol(V) = 1 uV
    abstol(I) = 1 pA
    temp = 27 C
    tnom = 27 C
    tempeffects = all
    errpreset = moderate
    method = traponly
    lteratio = 3.5
    relref = sigglobal
    cmin = 0 F
    gmin = 1 pS


Output and IC/nodeset summary:
                 save   3       (current)
                 save   6       (voltage)

........9........8........7........6........5..

Notice from spectre at time = 1.59375 ns during transient analysis `RiseTime-011_RiseTime', during task `MDLControl'.
    Found trapezoidal ringing on node Va:p.

........9........8........7........6........5........4.

Notice from spectre at time = 1.90775 ns during transient analysis `RiseTime-011_RiseTime', during task `MDLControl'.
    Found trapezoidal ringing on node Vd:p.

........9........8........7........6........5........4...

Notice from spectre at time = 1.96775 ns during transient analysis `RiseTime-011_RiseTime', during task `MDLControl'.
    Found trapezoidal ringing on node Vd:p.

........9........8........7........6........5........4.....

Notice from spectre at time = 2.02775 ns during transient analysis `RiseTime-011_RiseTime', during task `MDLControl'.
    Found trapezoidal ringing on node Vd:p.

........9........8........7........6........5........4.......

Notice from spectre at time = 2.08775 ns during transient analysis `RiseTime-011_RiseTime', during task `MDLControl'.
    Found trapezoidal ringing on node Vd:p.
        Further occurrences of this notice will be suppressed.

........9........8........7........6........5........4........3........2........1........0
Number of accepted tran steps =             80

Notice from spectre during transient analysis `RiseTime-011_RiseTime', during task `MDLControl'.
    Trapezoidal ringing is detected during tran analysis.
        Please use method=trap for better results and performance.


Maximum value achieved for any signal of each quantity: 
V: V(out) = 1 V
I: I(Vd:p) = 27.46 uA
If your circuit contains signals of the same quantity that are vastly different in size (such as high voltage circuitry combined with low voltage control circuitry), you should consider specifying global option `bin_relref=yes'.

~~~~~~~~~~~~~~~~~~~~~~~~~~~~~~~~~
Post-Transient Simulation Summary
~~~~~~~~~~~~~~~~~~~~~~~~~~~~~~~~~
   -   To further speed up simulation, consider
          add ++aps on command line
~~~~~~~~~~~~~~~~~~~~~~~~~~~~~~~~~


During simulation, the CPU load for active processors is :
        Spectre  0 (57.3 %)      1 (54.6 %)      2 (100.0 %)     3 (83.0 %)
        Other   
Initial condition solution time: CPU = 565 us, elapsed = 572.92 us.
Intrinsic tran analysis time:    CPU = 15.228 ms, elapsed = 32.778 ms.
Total time required for tran analysis `RiseTime-011_RiseTime': CPU = 17.184 ms, elapsed = 34.869 ms.
Time accumulated: CPU = 544.207 ms, elapsed = 1.47515 s.
Peak resident memory used = 64.5 Mbytes.


Notice from spectre during task `MDLControl'.
    16 notices suppressed.


****************************************************************
Transient Analysis `RiseTime-012_RiseTime': time = (0 s -> 3 ns)
****************************************************************
DC simulation time: CPU = 474 us, elapsed = 476.122 us.

Notice from spectre during transient analysis `RiseTime-012_RiseTime', during task `MDLControl'.
    No outputs were found. Loosening output filter criterion to `allpub'.


Opening the PSF file NAND.raw/RiseTime-012_RiseTime.tran.tran ...
Important parameter values:
    start = 0 s
    outputstart = 0 s
    stop = 3 ns
    step = 3 ps
    maxstep = 60 ps
    ic = all
    useprevic = no
    skipdc = no
    reltol = 1e-03
    abstol(V) = 1 uV
    abstol(I) = 1 pA
    temp = 27 C
    tnom = 27 C
    tempeffects = all
    errpreset = moderate
    method = traponly
    lteratio = 3.5
    relref = sigglobal
    cmin = 0 F
    gmin = 1 pS


Output and IC/nodeset summary:
                 save   3       (current)
                 save   6       (voltage)

........9........8........7........6........5........4......

Notice from spectre at time = 2.04674 ns during transient analysis `RiseTime-012_RiseTime', during task `MDLControl'.
    Found trapezoidal ringing on node Vb:p.

........9........8........7........6........5........4.......

Notice from spectre at time = 2.10674 ns during transient analysis `RiseTime-012_RiseTime', during task `MDLControl'.
    Found trapezoidal ringing on node Vb:p.

........9........8........7........6........5........4........3

Notice from spectre at time = 2.1275 ns during transient analysis `RiseTime-012_RiseTime', during task `MDLControl'.
    Found trapezoidal ringing on node Vb:p.

........9........8........7........6........5........4........3........2...

Notice from spectre at time = 2.57479 ns during transient analysis `RiseTime-012_RiseTime', during task `MDLControl'.
    Found trapezoidal ringing on node Vd:p.

........9........8........7........6........5........4........3........2.....

Notice from spectre at time = 2.63479 ns during transient analysis `RiseTime-012_RiseTime', during task `MDLControl'.
    Found trapezoidal ringing on node Vd:p.
        Further occurrences of this notice will be suppressed.

........9........8........7........6........5........4........3........2........1........0
Number of accepted tran steps =             72

Notice from spectre during transient analysis `RiseTime-012_RiseTime', during task `MDLControl'.
    Trapezoidal ringing is detected during tran analysis.
        Please use method=trap for better results and performance.


Maximum value achieved for any signal of each quantity: 
V: V(out) = 1 V
I: I(Vd:p) = 16.13 uA
If your circuit contains signals of the same quantity that are vastly different in size (such as high voltage circuitry combined with low voltage control circuitry), you should consider specifying global option `bin_relref=yes'.

~~~~~~~~~~~~~~~~~~~~~~~~~~~~~~~~~
Post-Transient Simulation Summary
~~~~~~~~~~~~~~~~~~~~~~~~~~~~~~~~~
   -   To further speed up simulation, consider
          add ++aps on command line
~~~~~~~~~~~~~~~~~~~~~~~~~~~~~~~~~


During simulation, the CPU load for active processors is :
        Spectre  0 (55.9 %)      1 (54.0 %)      2 (100.0 %)     3 (83.3 %)
        Other   
Initial condition solution time: CPU = 526 us, elapsed = 533.104 us.
Intrinsic tran analysis time:    CPU = 14.166 ms, elapsed = 33.2401 ms.
Total time required for tran analysis `RiseTime-012_RiseTime': CPU = 15.964 ms, elapsed = 35.192 ms.
Time accumulated: CPU = 567.609 ms, elapsed = 1.56763 s.
Peak resident memory used = 64.5 Mbytes.


Notice from spectre during task `MDLControl'.
    7 notices suppressed.


****************************************************************
Transient Analysis `RiseTime-013_RiseTime': time = (0 s -> 3 ns)
****************************************************************
DC simulation time: CPU = 492 us, elapsed = 493.05 us.

Notice from spectre during transient analysis `RiseTime-013_RiseTime', during task `MDLControl'.
    No outputs were found. Loosening output filter criterion to `allpub'.


Opening the PSF file NAND.raw/RiseTime-013_RiseTime.tran.tran ...
Important parameter values:
    start = 0 s
    outputstart = 0 s
    stop = 3 ns
    step = 3 ps
    maxstep = 60 ps
    ic = all
    useprevic = no
    skipdc = no
    reltol = 1e-03
    abstol(V) = 1 uV
    abstol(I) = 1 pA
    temp = 27 C
    tnom = 27 C
    tempeffects = all
    errpreset = moderate
    method = traponly
    lteratio = 3.5
    relref = sigglobal
    cmin = 0 F
    gmin = 1 pS


Output and IC/nodeset summary:
                 save   3       (current)
                 save   6       (voltage)

........9........8........7.......

Notice from spectre at time = 1.18267 ns during transient analysis `RiseTime-013_RiseTime', during task `MDLControl'.
    Found trapezoidal ringing on node Vb:p.

........9........8........7........

Notice from spectre at time = 1.24267 ns during transient analysis `RiseTime-013_RiseTime', during task `MDLControl'.
    Found trapezoidal ringing on node Vb:p.

........9........8........7........6.

Notice from spectre at time = 1.30267 ns during transient analysis `RiseTime-013_RiseTime', during task `MDLControl'.
    Found trapezoidal ringing on node Vb:p.

........9........8........7........6...

Notice from spectre at time = 1.36267 ns during transient analysis `RiseTime-013_RiseTime', during task `MDLControl'.
    Found trapezoidal ringing on node Vb:p.

........9........8........7........6.....

Notice from spectre at time = 1.42267 ns during transient analysis `RiseTime-013_RiseTime', during task `MDLControl'.
    Found trapezoidal ringing on node Vb:p.
        Further occurrences of this notice will be suppressed.

........9........8........7........6........5........4........3........2........1........0
Number of accepted tran steps =             66

Notice from spectre during transient analysis `RiseTime-013_RiseTime', during task `MDLControl'.
    Trapezoidal ringing is detected during tran analysis.
        Please use method=trap for better results and performance.


Maximum value achieved for any signal of each quantity: 
V: V(X1.M_i_3__m0_x2__m1:sbnode) = 1 V
I: I(Vd:p) = 9.421 uA
If your circuit contains signals of the same quantity that are vastly different in size (such as high voltage circuitry combined with low voltage control circuitry), you should consider specifying global option `bin_relref=yes'.

~~~~~~~~~~~~~~~~~~~~~~~~~~~~~~~~~
Post-Transient Simulation Summary
~~~~~~~~~~~~~~~~~~~~~~~~~~~~~~~~~
   -   To further speed up simulation, consider
          add ++aps on command line
~~~~~~~~~~~~~~~~~~~~~~~~~~~~~~~~~


During simulation, the CPU load for active processors is :
        Spectre  0 (55.6 %)      1 (56.6 %)      2 (100.0 %)     3 (81.2 %)
        Other   
Initial condition solution time: CPU = 539 us, elapsed = 549.078 us.
Intrinsic tran analysis time:    CPU = 12.569 ms, elapsed = 30.3581 ms.
Total time required for tran analysis `RiseTime-013_RiseTime': CPU = 14.369 ms, elapsed = 32.321 ms.
Time accumulated: CPU = 589.121 ms, elapsed = 1.65618 s.
Peak resident memory used = 64.5 Mbytes.


Notice from spectre during task `MDLControl'.
    6 notices suppressed.


****************************************************************
Transient Analysis `RiseTime-014_RiseTime': time = (0 s -> 3 ns)
****************************************************************
DC simulation time: CPU = 482 us, elapsed = 481.844 us.

Notice from spectre during transient analysis `RiseTime-014_RiseTime', during task `MDLControl'.
    No outputs were found. Loosening output filter criterion to `allpub'.


Opening the PSF file NAND.raw/RiseTime-014_RiseTime.tran.tran ...
Important parameter values:
    start = 0 s
    outputstart = 0 s
    stop = 3 ns
    step = 3 ps
    maxstep = 60 ps
    ic = all
    useprevic = no
    skipdc = no
    reltol = 1e-03
    abstol(V) = 1 uV
    abstol(I) = 1 pA
    temp = 27 C
    tnom = 27 C
    tempeffects = all
    errpreset = moderate
    method = traponly
    lteratio = 3.5
    relref = sigglobal
    cmin = 0 F
    gmin = 1 pS


Output and IC/nodeset summary:
                 save   3       (current)
                 save   6       (voltage)

........9........8........7........6.

Notice from spectre at time = 1.28009 ns during transient analysis `RiseTime-014_RiseTime', during task `MDLControl'.
    Found trapezoidal ringing on node Vd:p.

........9........8........7........6..

Notice from spectre at time = 1.34009 ns during transient analysis `RiseTime-014_RiseTime', during task `MDLControl'.
    Found trapezoidal ringing on node Vd:p.

........9........8........7........6....

Notice from spectre at time = 1.40009 ns during transient analysis `RiseTime-014_RiseTime', during task `MDLControl'.
    Found trapezoidal ringing on node Vd:p.

........9........8........7........6......

Notice from spectre at time = 1.46009 ns during transient analysis `RiseTime-014_RiseTime', during task `MDLControl'.
    Found trapezoidal ringing on node Vd:p.

........9........8........7........6........

Notice from spectre at time = 1.52009 ns during transient analysis `RiseTime-014_RiseTime', during task `MDLControl'.
    Found trapezoidal ringing on node Vd:p.
        Further occurrences of this notice will be suppressed.

........9........8........7........6........5........4........3........2........1........0
Number of accepted tran steps =             88

Notice from spectre during transient analysis `RiseTime-014_RiseTime', during task `MDLControl'.
    Trapezoidal ringing is detected during tran analysis.
        Please use method=trap for better results and performance.


Maximum value achieved for any signal of each quantity: 
V: V(X1.M_i_2__m0_x2__m0:sbnode) = 1 V
I: I(Vd:p) = 170.8 uA
If your circuit contains signals of the same quantity that are vastly different in size (such as high voltage circuitry combined with low voltage control circuitry), you should consider specifying global option `bin_relref=yes'.

~~~~~~~~~~~~~~~~~~~~~~~~~~~~~~~~~
Post-Transient Simulation Summary
~~~~~~~~~~~~~~~~~~~~~~~~~~~~~~~~~
   -   To further speed up simulation, consider
          add ++aps on command line
~~~~~~~~~~~~~~~~~~~~~~~~~~~~~~~~~


During simulation, the CPU load for active processors is :
        Spectre  0 (58.4 %)      1 (56.4 %)      2 (100.0 %)     3 (77.5 %)
        Other   
Initial condition solution time: CPU = 521 us, elapsed = 522.852 us.
Intrinsic tran analysis time:    CPU = 14.138 ms, elapsed = 29.572 ms.
Total time required for tran analysis `RiseTime-014_RiseTime': CPU = 15.914 ms, elapsed = 31.3461 ms.
Time accumulated: CPU = 614.095 ms, elapsed = 1.78121 s.
Peak resident memory used = 64.6 Mbytes.


Notice from spectre during task `MDLControl'.
    25 notices suppressed.


****************************************************************
Transient Analysis `RiseTime-015_RiseTime': time = (0 s -> 3 ns)
****************************************************************
DC simulation time: CPU = 496 us, elapsed = 495.911 us.

Notice from spectre during transient analysis `RiseTime-015_RiseTime', during task `MDLControl'.
    No outputs were found. Loosening output filter criterion to `allpub'.


Opening the PSF file NAND.raw/RiseTime-015_RiseTime.tran.tran ...
Important parameter values:
    start = 0 s
    outputstart = 0 s
    stop = 3 ns
    step = 3 ps
    maxstep = 60 ps
    ic = all
    useprevic = no
    skipdc = no
    reltol = 1e-03
    abstol(V) = 1 uV
    abstol(I) = 1 pA
    temp = 27 C
    tnom = 27 C
    tempeffects = all
    errpreset = moderate
    method = traponly
    lteratio = 3.5
    relref = sigglobal
    cmin = 0 F
    gmin = 1 pS


Output and IC/nodeset summary:
                 save   3       (current)
                 save   6       (voltage)

........9........8........7........6

Notice from spectre at time = 1.24542 ns during transient analysis `RiseTime-015_RiseTime', during task `MDLControl'.
    Found trapezoidal ringing on node Va:p.

........9........8........7........6.

Notice from spectre at time = 1.30542 ns during transient analysis `RiseTime-015_RiseTime', during task `MDLControl'.
    Found trapezoidal ringing on node Va:p.

........9........8........7........6...

Notice from spectre at time = 1.36542 ns during transient analysis `RiseTime-015_RiseTime', during task `MDLControl'.
    Found trapezoidal ringing on node Va:p.

........9........8........7........6.....

Notice from spectre at time = 1.42542 ns during transient analysis `RiseTime-015_RiseTime', during task `MDLControl'.
    Found trapezoidal ringing on node Va:p.

........9........8........7........6.......

Notice from spectre at time = 1.48542 ns during transient analysis `RiseTime-015_RiseTime', during task `MDLControl'.
    Found trapezoidal ringing on node Va:p.
        Further occurrences of this notice will be suppressed.

........9........8........7........6........5........4........3........2........1........0
Number of accepted tran steps =             83

Notice from spectre during transient analysis `RiseTime-015_RiseTime', during task `MDLControl'.
    Trapezoidal ringing is detected during tran analysis.
        Please use method=trap for better results and performance.


Maximum value achieved for any signal of each quantity: 
V: V(X1.M_i_3__m0_x2__m1:sbnode) = 1 V
I: I(Vd:p) = 118.4 uA
If your circuit contains signals of the same quantity that are vastly different in size (such as high voltage circuitry combined with low voltage control circuitry), you should consider specifying global option `bin_relref=yes'.

~~~~~~~~~~~~~~~~~~~~~~~~~~~~~~~~~
Post-Transient Simulation Summary
~~~~~~~~~~~~~~~~~~~~~~~~~~~~~~~~~
   -   To further speed up simulation, consider
          add ++aps on command line
~~~~~~~~~~~~~~~~~~~~~~~~~~~~~~~~~


During simulation, the CPU load for active processors is :
        Spectre  0 (57.4 %)      1 (58.6 %)      2 (100.0 %)     3 (75.8 %)
        Other   
Initial condition solution time: CPU = 541 us, elapsed = 542.879 us.
Intrinsic tran analysis time:    CPU = 14.001 ms, elapsed = 30.04 ms.
Total time required for tran analysis `RiseTime-015_RiseTime': CPU = 15.831 ms, elapsed = 31.8711 ms.
Time accumulated: CPU = 637.093 ms, elapsed = 1.87251 s.
Peak resident memory used = 64.6 Mbytes.


Notice from spectre during task `MDLControl'.
    26 notices suppressed.


****************************************************************
Transient Analysis `RiseTime-016_RiseTime': time = (0 s -> 3 ns)
****************************************************************
DC simulation time: CPU = 488 us, elapsed = 488.997 us.

Notice from spectre during transient analysis `RiseTime-016_RiseTime', during task `MDLControl'.
    No outputs were found. Loosening output filter criterion to `allpub'.


Opening the PSF file NAND.raw/RiseTime-016_RiseTime.tran.tran ...
Important parameter values:
    start = 0 s
    outputstart = 0 s
    stop = 3 ns
    step = 3 ps
    maxstep = 60 ps
    ic = all
    useprevic = no
    skipdc = no
    reltol = 1e-03
    abstol(V) = 1 uV
    abstol(I) = 1 pA
    temp = 27 C
    tnom = 27 C
    tempeffects = all
    errpreset = moderate
    method = traponly
    lteratio = 3.5
    relref = sigglobal
    cmin = 0 F
    gmin = 1 pS


Output and IC/nodeset summary:
                 save   3       (current)
                 save   6       (voltage)

........9........8........7........6.......

Notice from spectre at time = 1.49574 ns during transient analysis `RiseTime-016_RiseTime', during task `MDLControl'.
    Found trapezoidal ringing on node Vd:p.

........9........8........7........6........5

Notice from spectre at time = 1.55574 ns during transient analysis `RiseTime-016_RiseTime', during task `MDLControl'.
    Found trapezoidal ringing on node Vd:p.

........9........8........7........6........5..

Notice from spectre at time = 1.61574 ns during transient analysis `RiseTime-016_RiseTime', during task `MDLControl'.
    Found trapezoidal ringing on node Vd:p.

........9........8........7........6........5...

Notice from spectre at time = 1.67574 ns during transient analysis `RiseTime-016_RiseTime', during task `MDLControl'.
    Found trapezoidal ringing on node Vd:p.

........9........8........7........6........5.....

Notice from spectre at time = 1.73574 ns during transient analysis `RiseTime-016_RiseTime', during task `MDLControl'.
    Found trapezoidal ringing on node Vd:p.
        Further occurrences of this notice will be suppressed.

........9........8........7........6........5........4........3........2........1........0
Number of accepted tran steps =             88

Notice from spectre during transient analysis `RiseTime-016_RiseTime', during task `MDLControl'.
    Trapezoidal ringing is detected during tran analysis.
        Please use method=trap for better results and performance.


Maximum value achieved for any signal of each quantity: 
V: V(X1.M_i_3__m0_x2__m1:sbnode) = 1 V
I: I(Vd:p) = 81.86 uA
If your circuit contains signals of the same quantity that are vastly different in size (such as high voltage circuitry combined with low voltage control circuitry), you should consider specifying global option `bin_relref=yes'.

~~~~~~~~~~~~~~~~~~~~~~~~~~~~~~~~~
Post-Transient Simulation Summary
~~~~~~~~~~~~~~~~~~~~~~~~~~~~~~~~~
   -   To further speed up simulation, consider
          add ++aps on command line
~~~~~~~~~~~~~~~~~~~~~~~~~~~~~~~~~


During simulation, the CPU load for active processors is :
        Spectre  0 (57.8 %)      1 (60.5 %)      2 (100.0 %)     3 (74.0 %)
        Other   
Initial condition solution time: CPU = 538 us, elapsed = 540.018 us.
Intrinsic tran analysis time:    CPU = 15.344 ms, elapsed = 37.298 ms.
Total time required for tran analysis `RiseTime-016_RiseTime': CPU = 17.075 ms, elapsed = 39.027 ms.
Time accumulated: CPU = 661.714 ms, elapsed = 1.96365 s.
Peak resident memory used = 64.6 Mbytes.


Notice from spectre during task `MDLControl'.
    22 notices suppressed.


****************************************************************
Transient Analysis `RiseTime-017_RiseTime': time = (0 s -> 3 ns)
****************************************************************
DC simulation time: CPU = 487 us, elapsed = 488.043 us.

Notice from spectre during transient analysis `RiseTime-017_RiseTime', during task `MDLControl'.
    No outputs were found. Loosening output filter criterion to `allpub'.


Opening the PSF file NAND.raw/RiseTime-017_RiseTime.tran.tran ...
Important parameter values:
    start = 0 s
    outputstart = 0 s
    stop = 3 ns
    step = 3 ps
    maxstep = 60 ps
    ic = all
    useprevic = no
    skipdc = no
    reltol = 1e-03
    abstol(V) = 1 uV
    abstol(I) = 1 pA
    temp = 27 C
    tnom = 27 C
    tempeffects = all
    errpreset = moderate
    method = traponly
    lteratio = 3.5
    relref = sigglobal
    cmin = 0 F
    gmin = 1 pS


Output and IC/nodeset summary:
                 save   3       (current)
                 save   6       (voltage)

........9........8........7........6........5.

Notice from spectre at time = 1.5774 ns during transient analysis `RiseTime-017_RiseTime', during task `MDLControl'.
    Found trapezoidal ringing on node Vd:p.

........9........8........7........6........5..

Notice from spectre at time = 1.6374 ns during transient analysis `RiseTime-017_RiseTime', during task `MDLControl'.
    Found trapezoidal ringing on node Vd:p.

........9........8........7........6........5....

Notice from spectre at time = 1.6974 ns during transient analysis `RiseTime-017_RiseTime', during task `MDLControl'.
    Found trapezoidal ringing on node Vd:p.

........9........8........7........6........5......

Notice from spectre at time = 1.7574 ns during transient analysis `RiseTime-017_RiseTime', during task `MDLControl'.
    Found trapezoidal ringing on node Vd:p.

........9........8........7........6........5........

Notice from spectre at time = 1.8174 ns during transient analysis `RiseTime-017_RiseTime', during task `MDLControl'.
    Found trapezoidal ringing on node Vd:p.
        Further occurrences of this notice will be suppressed.

........9........8........7........6........5........4........3........2........1........0
Number of accepted tran steps =             86

Notice from spectre during transient analysis `RiseTime-017_RiseTime', during task `MDLControl'.
    Trapezoidal ringing is detected during tran analysis.
        Please use method=trap for better results and performance.


Maximum value achieved for any signal of each quantity: 
V: V(X1.M_i_3__m0_x2__m1:sbnode) = 1 V
I: I(Vd:p) = 50.54 uA
If your circuit contains signals of the same quantity that are vastly different in size (such as high voltage circuitry combined with low voltage control circuitry), you should consider specifying global option `bin_relref=yes'.

~~~~~~~~~~~~~~~~~~~~~~~~~~~~~~~~~
Post-Transient Simulation Summary
~~~~~~~~~~~~~~~~~~~~~~~~~~~~~~~~~
   -   To further speed up simulation, consider
          add ++aps on command line
~~~~~~~~~~~~~~~~~~~~~~~~~~~~~~~~~


During simulation, the CPU load for active processors is :
        Spectre  0 (57.5 %)      1 (62.1 %)      2 (100.0 %)     3 (72.9 %)
        Other   
Initial condition solution time: CPU = 532 us, elapsed = 532.866 us.
Intrinsic tran analysis time:    CPU = 15.161 ms, elapsed = 31.203 ms.
Total time required for tran analysis `RiseTime-017_RiseTime': CPU = 17.057 ms, elapsed = 33.1011 ms.
Time accumulated: CPU = 686.111 ms, elapsed = 2.04964 s.
Peak resident memory used = 64.6 Mbytes.


Notice from spectre during task `MDLControl'.
    20 notices suppressed.


****************************************************************
Transient Analysis `RiseTime-018_RiseTime': time = (0 s -> 3 ns)
****************************************************************
DC simulation time: CPU = 491 us, elapsed = 493.05 us.

Notice from spectre during transient analysis `RiseTime-018_RiseTime', during task `MDLControl'.
    No outputs were found. Loosening output filter criterion to `allpub'.


Opening the PSF file NAND.raw/RiseTime-018_RiseTime.tran.tran ...
Important parameter values:
    start = 0 s
    outputstart = 0 s
    stop = 3 ns
    step = 3 ps
    maxstep = 60 ps
    ic = all
    useprevic = no
    skipdc = no
    reltol = 1e-03
    abstol(V) = 1 uV
    abstol(I) = 1 pA
    temp = 27 C
    tnom = 27 C
    tempeffects = all
    errpreset = moderate
    method = traponly
    lteratio = 3.5
    relref = sigglobal
    cmin = 0 F
    gmin = 1 pS


Output and IC/nodeset summary:
                 save   3       (current)
                 save   6       (voltage)

........9........8........7........6........5........4

Notice from spectre at time = 1.85468 ns during transient analysis `RiseTime-018_RiseTime', during task `MDLControl'.
    Found trapezoidal ringing on node Vb:p.

........9........8........7........6........5........4..

Notice from spectre at time = 1.91468 ns during transient analysis `RiseTime-018_RiseTime', during task `MDLControl'.
    Found trapezoidal ringing on node Vb:p.

........9........8........7........6........5........4...

Notice from spectre at time = 1.97468 ns during transient analysis `RiseTime-018_RiseTime', during task `MDLControl'.
    Found trapezoidal ringing on node Vb:p.

........9........8........7........6........5........4.....

Notice from spectre at time = 2.03468 ns during transient analysis `RiseTime-018_RiseTime', during task `MDLControl'.
    Found trapezoidal ringing on node Vb:p.

........9........8........7........6........5........4.......

Notice from spectre at time = 2.09468 ns during transient analysis `RiseTime-018_RiseTime', during task `MDLControl'.
    Found trapezoidal ringing on node Vb:p.
        Further occurrences of this notice will be suppressed.

........9........8........7........6........5........4........3........2........1........0
Number of accepted tran steps =             81

Notice from spectre during transient analysis `RiseTime-018_RiseTime', during task `MDLControl'.
    Trapezoidal ringing is detected during tran analysis.
        Please use method=trap for better results and performance.


Maximum value achieved for any signal of each quantity: 
V: V(X1.M_i_3__m0_x2__m1:sbnode) = 1 V
I: I(Vd:p) = 31.29 uA
If your circuit contains signals of the same quantity that are vastly different in size (such as high voltage circuitry combined with low voltage control circuitry), you should consider specifying global option `bin_relref=yes'.

~~~~~~~~~~~~~~~~~~~~~~~~~~~~~~~~~
Post-Transient Simulation Summary
~~~~~~~~~~~~~~~~~~~~~~~~~~~~~~~~~
   -   To further speed up simulation, consider
          add ++aps on command line
~~~~~~~~~~~~~~~~~~~~~~~~~~~~~~~~~


During simulation, the CPU load for active processors is :
        Spectre  0 (57.2 %)      1 (63.6 %)      2 (100.0 %)     3 (71.2 %)
        Other   
Initial condition solution time: CPU = 550 us, elapsed = 555.992 us.
Intrinsic tran analysis time:    CPU = 14.53 ms, elapsed = 29.8262 ms.
Total time required for tran analysis `RiseTime-018_RiseTime': CPU = 16.386 ms, elapsed = 31.8348 ms.
Time accumulated: CPU = 710.397 ms, elapsed = 2.13154 s.
Peak resident memory used = 64.6 Mbytes.


Notice from spectre during task `MDLControl'.
    16 notices suppressed.


****************************************************************
Transient Analysis `RiseTime-019_RiseTime': time = (0 s -> 3 ns)
****************************************************************
DC simulation time: CPU = 507 us, elapsed = 508.07 us.

Notice from spectre during transient analysis `RiseTime-019_RiseTime', during task `MDLControl'.
    No outputs were found. Loosening output filter criterion to `allpub'.


Opening the PSF file NAND.raw/RiseTime-019_RiseTime.tran.tran ...
Important parameter values:
    start = 0 s
    outputstart = 0 s
    stop = 3 ns
    step = 3 ps
    maxstep = 60 ps
    ic = all
    useprevic = no
    skipdc = no
    reltol = 1e-03
    abstol(V) = 1 uV
    abstol(I) = 1 pA
    temp = 27 C
    tnom = 27 C
    tempeffects = all
    errpreset = moderate
    method = traponly
    lteratio = 3.5
    relref = sigglobal
    cmin = 0 F
    gmin = 1 pS


Output and IC/nodeset summary:
                 save   3       (current)
                 save   6       (voltage)

........9........8........7........6........5........4......

Notice from spectre at time = 2.05588 ns during transient analysis `RiseTime-019_RiseTime', during task `MDLControl'.
    Found trapezoidal ringing on node Vb:p.

........9........8........7........6........5........4........

Notice from spectre at time = 2.11588 ns during transient analysis `RiseTime-019_RiseTime', during task `MDLControl'.
    Found trapezoidal ringing on node Vb:p.

........9........8........7........6........5........4........3

Notice from spectre at time = 2.1275 ns during transient analysis `RiseTime-019_RiseTime', during task `MDLControl'.
    Found trapezoidal ringing on node Vb:p.

........9........8........7........6........5........4........3........2..

Notice from spectre at time = 2.54323 ns during transient analysis `RiseTime-019_RiseTime', during task `MDLControl'.
    Found trapezoidal ringing on node Vd:p.

........9........8........7........6........5........4........3........2....

Notice from spectre at time = 2.60323 ns during transient analysis `RiseTime-019_RiseTime', during task `MDLControl'.
    Found trapezoidal ringing on node Vd:p.
        Further occurrences of this notice will be suppressed.

........9........8........7........6........5........4........3........2........1........0
Number of accepted tran steps =             71

Notice from spectre during transient analysis `RiseTime-019_RiseTime', during task `MDLControl'.
    Trapezoidal ringing is detected during tran analysis.
        Please use method=trap for better results and performance.


Maximum value achieved for any signal of each quantity: 
V: V(out) = 1 V
I: I(Vd:p) = 18.52 uA
If your circuit contains signals of the same quantity that are vastly different in size (such as high voltage circuitry combined with low voltage control circuitry), you should consider specifying global option `bin_relref=yes'.

~~~~~~~~~~~~~~~~~~~~~~~~~~~~~~~~~
Post-Transient Simulation Summary
~~~~~~~~~~~~~~~~~~~~~~~~~~~~~~~~~
   -   To further speed up simulation, consider
          add ++aps on command line
~~~~~~~~~~~~~~~~~~~~~~~~~~~~~~~~~


During simulation, the CPU load for active processors is :
        Spectre  0 (57.1 %)      1 (65.1 %)      2 (100.0 %)     3 (70.7 %)
        Other   
Initial condition solution time: CPU = 561 us, elapsed = 566.959 us.
Intrinsic tran analysis time:    CPU = 14.185 ms, elapsed = 30.246 ms.
Total time required for tran analysis `RiseTime-019_RiseTime': CPU = 16.167 ms, elapsed = 32.3451 ms.
Time accumulated: CPU = 733.87 ms, elapsed = 2.21499 s.
Peak resident memory used = 64.6 Mbytes.


Notice from spectre during task `MDLControl'.
    7 notices suppressed.


****************************************************************
Transient Analysis `RiseTime-020_RiseTime': time = (0 s -> 3 ns)
****************************************************************
DC simulation time: CPU = 473 us, elapsed = 473.976 us.

Notice from spectre during transient analysis `RiseTime-020_RiseTime', during task `MDLControl'.
    No outputs were found. Loosening output filter criterion to `allpub'.


Opening the PSF file NAND.raw/RiseTime-020_RiseTime.tran.tran ...
Important parameter values:
    start = 0 s
    outputstart = 0 s
    stop = 3 ns
    step = 3 ps
    maxstep = 60 ps
    ic = all
    useprevic = no
    skipdc = no
    reltol = 1e-03
    abstol(V) = 1 uV
    abstol(I) = 1 pA
    temp = 27 C
    tnom = 27 C
    tempeffects = all
    errpreset = moderate
    method = traponly
    lteratio = 3.5
    relref = sigglobal
    cmin = 0 F
    gmin = 1 pS


Output and IC/nodeset summary:
                 save   3       (current)
                 save   6       (voltage)

........9........8........7........6...

Notice from spectre at time = 1.36355 ns during transient analysis `RiseTime-020_RiseTime', during task `MDLControl'.
    Found trapezoidal ringing on node Vb:p.

........9........8........7........6.....

Notice from spectre at time = 1.42355 ns during transient analysis `RiseTime-020_RiseTime', during task `MDLControl'.
    Found trapezoidal ringing on node Vb:p.

........9........8........7........6........5

Notice from spectre at time = 1.54355 ns during transient analysis `RiseTime-020_RiseTime', during task `MDLControl'.
    Found trapezoidal ringing on node Vb:p.

........9........8........7........6........5........4........3........2........1.

Notice from spectre at time = 2.77676 ns during transient analysis `RiseTime-020_RiseTime', during task `MDLControl'.
    Found trapezoidal ringing on node Va:p.

........9........8........7........6........5........4........3........2........1..

Notice from spectre at time = 2.83676 ns during transient analysis `RiseTime-020_RiseTime', during task `MDLControl'.
    Found trapezoidal ringing on node Va:p.
        Further occurrences of this notice will be suppressed.

........9........8........7........6........5........4........3........2........1........0
Number of accepted tran steps =             64

Notice from spectre during transient analysis `RiseTime-020_RiseTime', during task `MDLControl'.
    Trapezoidal ringing is detected during tran analysis.
        Please use method=trap for better results and performance.


Maximum value achieved for any signal of each quantity: 
V: V(X1.M_i_3__m0_x2__m1:sbnode) = 1 V
I: I(Vd:p) = 11.21 uA
If your circuit contains signals of the same quantity that are vastly different in size (such as high voltage circuitry combined with low voltage control circuitry), you should consider specifying global option `bin_relref=yes'.

~~~~~~~~~~~~~~~~~~~~~~~~~~~~~~~~~
Post-Transient Simulation Summary
~~~~~~~~~~~~~~~~~~~~~~~~~~~~~~~~~
   -   To further speed up simulation, consider
          add ++aps on command line
~~~~~~~~~~~~~~~~~~~~~~~~~~~~~~~~~


During simulation, the CPU load for active processors is :
        Spectre  0 (56.1 %)      1 (66.8 %)      2 (100.0 %)     3 (68.3 %)
        Other   
Initial condition solution time: CPU = 512 us, elapsed = 514.03 us.
Intrinsic tran analysis time:    CPU = 12.236 ms, elapsed = 36.0842 ms.
[...]
    Trapezoidal ringing is detected during tran analysis.
        Please use method=trap for better results and performance.


Maximum value achieved for any signal of each quantity: 
V: V(X1.M_i_2__m0_x2__m0:sbnode) = 1 V
I: I(Vd:p) = 235.6 uA
If your circuit contains signals of the same quantity that are vastly different in size (such as high voltage circuitry combined with low voltage control circuitry), you should consider specifying global option `bin_relref=yes'.

~~~~~~~~~~~~~~~~~~~~~~~~~~~~~~~~~
Post-Transient Simulation Summary
~~~~~~~~~~~~~~~~~~~~~~~~~~~~~~~~~
   -   To further speed up simulation, consider
          add ++aps on command line
~~~~~~~~~~~~~~~~~~~~~~~~~~~~~~~~~


During simulation, the CPU load for active processors is :
        Spectre  0 (51.8 %)      1 (81.1 %)      2 (100.0 %)     3 (50.7 %)
        Other   
Initial condition solution time: CPU = 535 us, elapsed = 540.972 us.
Intrinsic tran analysis time:    CPU = 14.29 ms, elapsed = 38.816 ms.
Total time required for tran analysis `RiseTime-043_RiseTime': CPU = 16.109 ms, elapsed = 40.8239 ms.
Time accumulated: CPU = 1.30047 s, elapsed = 4.94245 s.
Peak resident memory used = 64.9 Mbytes.


Notice from spectre during task `MDLControl'.
    23 notices suppressed.


****************************************************************
Transient Analysis `RiseTime-044_RiseTime': time = (0 s -> 3 ns)
****************************************************************
DC simulation time: CPU = 494 us, elapsed = 494.003 us.

Notice from spectre during transient analysis `RiseTime-044_RiseTime', during task `MDLControl'.
    No outputs were found. Loosening output filter criterion to `allpub'.


Opening the PSF file NAND.raw/RiseTime-044_RiseTime.tran.tran ...
Important parameter values:
    start = 0 s
    outputstart = 0 s
    stop = 3 ns
    step = 3 ps
    maxstep = 60 ps
    ic = all
    useprevic = no
    skipdc = no
    reltol = 1e-03
    abstol(V) = 1 uV
    abstol(I) = 1 pA
    temp = 27 C
    tnom = 27 C
    tempeffects = all
    errpreset = moderate
    method = traponly
    lteratio = 3.5
    relref = sigglobal
    cmin = 0 F
    gmin = 1 pS


Output and IC/nodeset summary:
                 save   3       (current)
                 save   6       (voltage)

........9........8........7........

Notice from spectre at time = 1.1625 ns during transient analysis `RiseTime-044_RiseTime', during task `MDLControl'.
    Found trapezoidal ringing on node Va:p.

........9........8........7........6........5..

Notice from spectre at time = 1.62568 ns during transient analysis `RiseTime-044_RiseTime', during task `MDLControl'.
    Found trapezoidal ringing on node Vd:p.

........9........8........7........6........5....

Notice from spectre at time = 1.68568 ns during transient analysis `RiseTime-044_RiseTime', during task `MDLControl'.
    Found trapezoidal ringing on node Vd:p.

........9........8........7........6........5......

Notice from spectre at time = 1.74568 ns during transient analysis `RiseTime-044_RiseTime', during task `MDLControl'.
    Found trapezoidal ringing on node Vd:p.

........9........8........7........6........5.......

Notice from spectre at time = 1.80568 ns during transient analysis `RiseTime-044_RiseTime', during task `MDLControl'.
    Found trapezoidal ringing on node Vd:p.
        Further occurrences of this notice will be suppressed.

........9........8........7........6........5........4........3........2........1........0
Number of accepted tran steps =             80

Notice from spectre during transient analysis `RiseTime-044_RiseTime', during task `MDLControl'.
    Trapezoidal ringing is detected during tran analysis.
        Please use method=trap for better results and performance.


Maximum value achieved for any signal of each quantity: 
V: V(X1.M_i_2__m0_x2__m0:sbnode) = 1 V
I: I(Vd:p) = 219.8 uA
If your circuit contains signals of the same quantity that are vastly different in size (such as high voltage circuitry combined with low voltage control circuitry), you should consider specifying global option `bin_relref=yes'.

~~~~~~~~~~~~~~~~~~~~~~~~~~~~~~~~~
Post-Transient Simulation Summary
~~~~~~~~~~~~~~~~~~~~~~~~~~~~~~~~~
   -   To further speed up simulation, consider
          add ++aps on command line
~~~~~~~~~~~~~~~~~~~~~~~~~~~~~~~~~


During simulation, the CPU load for active processors is :
        Spectre  0 (51.4 %)      1 (81.6 %)      2 (100.0 %)     3 (50.0 %)
        Other   
Initial condition solution time: CPU = 537 us, elapsed = 539.064 us.
Intrinsic tran analysis time:    CPU = 14.557 ms, elapsed = 43.7429 ms.
Total time required for tran analysis `RiseTime-044_RiseTime': CPU = 16.415 ms, elapsed = 45.6002 ms.
Time accumulated: CPU = 1.32434 s, elapsed = 5.07223 s.
Peak resident memory used = 64.9 Mbytes.


Notice from spectre during task `MDLControl'.
    20 notices suppressed.


****************************************************************
Transient Analysis `RiseTime-045_RiseTime': time = (0 s -> 3 ns)
****************************************************************
DC simulation time: CPU = 497 us, elapsed = 498.056 us.

Notice from spectre during transient analysis `RiseTime-045_RiseTime', during task `MDLControl'.
    No outputs were found. Loosening output filter criterion to `allpub'.


Opening the PSF file NAND.raw/RiseTime-045_RiseTime.tran.tran ...
Important parameter values:
    start = 0 s
    outputstart = 0 s
    stop = 3 ns
    step = 3 ps
    maxstep = 60 ps
    ic = all
    useprevic = no
    skipdc = no
    reltol = 1e-03
    abstol(V) = 1 uV
    abstol(I) = 1 pA
    temp = 27 C
    tnom = 27 C
    tempeffects = all
    errpreset = moderate
    method = traponly
    lteratio = 3.5
    relref = sigglobal
    cmin = 0 F
    gmin = 1 pS


Output and IC/nodeset summary:
                 save   3       (current)
                 save   6       (voltage)

........9........8........7........6.

Notice from spectre at time = 1.2609 ns during transient analysis `RiseTime-045_RiseTime', during task `MDLControl'.
    Found trapezoidal ringing on node X1.net_0__m0__m1.

........9........8........7........6..

Notice from spectre at time = 1.29124 ns during transient analysis `RiseTime-045_RiseTime', during task `MDLControl'.
    Found trapezoidal ringing on node X1.net_0__m0__m1.

........9........8........7........6........5....

Notice from spectre at time = 1.69271 ns during transient analysis `RiseTime-045_RiseTime', during task `MDLControl'.
    Found trapezoidal ringing on node Vd:p.

........9........8........7........6........5......

Notice from spectre at time = 1.75271 ns during transient analysis `RiseTime-045_RiseTime', during task `MDLControl'.
    Found trapezoidal ringing on node Vd:p.

........9........8........7........6........5........

Notice from spectre at time = 1.81271 ns during transient analysis `RiseTime-045_RiseTime', during task `MDLControl'.
    Found trapezoidal ringing on node Vd:p.
        Further occurrences of this notice will be suppressed.

........9........8........7........6........5........4........3........2........1........0
Number of accepted tran steps =             77

Notice from spectre during transient analysis `RiseTime-045_RiseTime', during task `MDLControl'.
    Trapezoidal ringing is detected during tran analysis.
        Please use method=trap for better results and performance.


Maximum value achieved for any signal of each quantity: 
V: V(X1.M_i_3__m0_x2__m1:sbnode) = 1 V
I: I(Vd:p) = 177.2 uA
If your circuit contains signals of the same quantity that are vastly different in size (such as high voltage circuitry combined with low voltage control circuitry), you should consider specifying global option `bin_relref=yes'.

~~~~~~~~~~~~~~~~~~~~~~~~~~~~~~~~~
Post-Transient Simulation Summary
~~~~~~~~~~~~~~~~~~~~~~~~~~~~~~~~~
   -   To further speed up simulation, consider
          add ++aps on command line
~~~~~~~~~~~~~~~~~~~~~~~~~~~~~~~~~


During simulation, the CPU load for active processors is :
        Spectre  0 (51.2 %)      1 (82.1 %)      2 (100.0 %)     3 (49.4 %)
        Other   
Initial condition solution time: CPU = 541 us, elapsed = 541.925 us.
Intrinsic tran analysis time:    CPU = 14.364 ms, elapsed = 41.81 ms.
Total time required for tran analysis `RiseTime-045_RiseTime': CPU = 16.113 ms, elapsed = 43.5591 ms.
Time accumulated: CPU = 1.34764 s, elapsed = 5.1955 s.
Peak resident memory used = 65 Mbytes.


Notice from spectre during task `MDLControl'.
    20 notices suppressed.


****************************************************************
Transient Analysis `RiseTime-046_RiseTime': time = (0 s -> 3 ns)
****************************************************************
DC simulation time: CPU = 498 us, elapsed = 498.056 us.

Notice from spectre during transient analysis `RiseTime-046_RiseTime', during task `MDLControl'.
    No outputs were found. Loosening output filter criterion to `allpub'.


Opening the PSF file NAND.raw/RiseTime-046_RiseTime.tran.tran ...
Important parameter values:
    start = 0 s
    outputstart = 0 s
    stop = 3 ns
    step = 3 ps
    maxstep = 60 ps
    ic = all
    useprevic = no
    skipdc = no
    reltol = 1e-03
    abstol(V) = 1 uV
    abstol(I) = 1 pA
    temp = 27 C
    tnom = 27 C
    tempeffects = all
    errpreset = moderate
    method = traponly
    lteratio = 3.5
    relref = sigglobal
    cmin = 0 F
    gmin = 1 pS


Output and IC/nodeset summary:
                 save   3       (current)
                 save   6       (voltage)

........9........8........7........6........5........4.

Notice from spectre at time = 1.89832 ns during transient analysis `RiseTime-046_RiseTime', during task `MDLControl'.
    Found trapezoidal ringing on node X1.net_0__m0__m1.

........9........8........7........6........5........4...

Notice from spectre at time = 1.95832 ns during transient analysis `RiseTime-046_RiseTime', during task `MDLControl'.
    Found trapezoidal ringing on node X1.net_0__m0__m1.

........9........8........7........6........5........4.....

Notice from spectre at time = 2.01832 ns during transient analysis `RiseTime-046_RiseTime', during task `MDLControl'.
    Found trapezoidal ringing on node X1.net_0__m0__m1.

........9........8........7........6........5........4.......

Notice from spectre at time = 2.07832 ns during transient analysis `RiseTime-046_RiseTime', during task `MDLControl'.
    Found trapezoidal ringing on node X1.net_0__m0__m1.

........9........8........7........6........5........4........

Notice from spectre at time = 2.13832 ns during transient analysis `RiseTime-046_RiseTime', during task `MDLControl'.
    Found trapezoidal ringing on node X1.net_0__m0__m1.
        Further occurrences of this notice will be suppressed.

........9........8........7........6........5........4........3........2........1........0
Number of accepted tran steps =             77

Notice from spectre during transient analysis `RiseTime-046_RiseTime', during task `MDLControl'.
    Trapezoidal ringing is detected during tran analysis.
        Please use method=trap for better results and performance.


Maximum value achieved for any signal of each quantity: 
V: V(X1.M_i_3__m0_x2__m1:sbnode) = 1 V
I: I(Vd:p) = 120.9 uA
If your circuit contains signals of the same quantity that are vastly different in size (such as high voltage circuitry combined with low voltage control circuitry), you should consider specifying global option `bin_relref=yes'.

~~~~~~~~~~~~~~~~~~~~~~~~~~~~~~~~~
Post-Transient Simulation Summary
~~~~~~~~~~~~~~~~~~~~~~~~~~~~~~~~~
   -   To further speed up simulation, consider
          add ++aps on command line
~~~~~~~~~~~~~~~~~~~~~~~~~~~~~~~~~


During simulation, the CPU load for active processors is :
        Spectre  0 (50.9 %)      1 (82.5 %)      2 (100.0 %)     3 (48.7 %)
        Other   
Initial condition solution time: CPU = 538 us, elapsed = 539.064 us.
Intrinsic tran analysis time:    CPU = 13.769 ms, elapsed = 43.7548 ms.
Total time required for tran analysis `RiseTime-046_RiseTime': CPU = 15.561 ms, elapsed = 45.547 ms.
Time accumulated: CPU = 1.37065 s, elapsed = 5.32251 s.
Peak resident memory used = 65 Mbytes.


Notice from spectre during task `MDLControl'.
    15 notices suppressed.


****************************************************************
Transient Analysis `RiseTime-047_RiseTime': time = (0 s -> 3 ns)
****************************************************************
DC simulation time: CPU = 473 us, elapsed = 473.976 us.

Notice from spectre during transient analysis `RiseTime-047_RiseTime', during task `MDLControl'.
    No outputs were found. Loosening output filter criterion to `allpub'.


Opening the PSF file NAND.raw/RiseTime-047_RiseTime.tran.tran ...
Important parameter values:
    start = 0 s
    outputstart = 0 s
    stop = 3 ns
    step = 3 ps
    maxstep = 60 ps
    ic = all
    useprevic = no
    skipdc = no
    reltol = 1e-03
    abstol(V) = 1 uV
    abstol(I) = 1 pA
    temp = 27 C
    tnom = 27 C
    tempeffects = all
    errpreset = moderate
    method = traponly
    lteratio = 3.5
    relref = sigglobal
    cmin = 0 F
    gmin = 1 pS


Output and IC/nodeset summary:
                 save   3       (current)
                 save   6       (voltage)

........9........8........7........6

Notice from spectre at time = 1.26596 ns during transient analysis `RiseTime-047_RiseTime', during task `MDLControl'.
    Found trapezoidal ringing on node Vb:p.

........9........8........7........6........5........4........3........2..

Notice from spectre at time = 2.51161 ns during transient analysis `RiseTime-047_RiseTime', during task `MDLControl'.
    Found trapezoidal ringing on node Vd:p.

........9........8........7........6........5........4........3........2...

Notice from spectre at time = 2.57161 ns during transient analysis `RiseTime-047_RiseTime', during task `MDLControl'.
    Found trapezoidal ringing on node Vd:p.

........9........8........7........6........5........4........3........2.....

Notice from spectre at time = 2.63161 ns during transient analysis `RiseTime-047_RiseTime', during task `MDLControl'.
    Found trapezoidal ringing on node Vd:p.

........9........8........7........6........5........4........3........2.......

Notice from spectre at time = 2.69161 ns during transient analysis `RiseTime-047_RiseTime', during task `MDLControl'.
    Found trapezoidal ringing on node Vd:p.
        Further occurrences of this notice will be suppressed.

........9........8........7........6........5........4........3........2........1........0
Number of accepted tran steps =             75

Notice from spectre during transient analysis `RiseTime-047_RiseTime', during task `MDLControl'.
    Trapezoidal ringing is detected during tran analysis.
        Please use method=trap for better results and performance.


Maximum value achieved for any signal of each quantity: 
V: V(X1.M_i_3__m0_x2__m1:sbnode) = 1 V
I: I(Vd:p) = 79.68 uA
If your circuit contains signals of the same quantity that are vastly different in size (such as high voltage circuitry combined with low voltage control circuitry), you should consider specifying global option `bin_relref=yes'.

~~~~~~~~~~~~~~~~~~~~~~~~~~~~~~~~~
Post-Transient Simulation Summary
~~~~~~~~~~~~~~~~~~~~~~~~~~~~~~~~~
   -   To further speed up simulation, consider
          add ++aps on command line
~~~~~~~~~~~~~~~~~~~~~~~~~~~~~~~~~


During simulation, the CPU load for active processors is :
        Spectre  0 (50.5 %)      1 (82.9 %)      2 (100.0 %)     3 (48.3 %)
        Other   
Initial condition solution time: CPU = 518 us, elapsed = 531.912 us.
Intrinsic tran analysis time:    CPU = 13.609 ms, elapsed = 37.4629 ms.
Total time required for tran analysis `RiseTime-047_RiseTime': CPU = 15.448 ms, elapsed = 39.5389 ms.
Time accumulated: CPU = 1.39385 s, elapsed = 5.44195 s.
Peak resident memory used = 65 Mbytes.


Notice from spectre during task `MDLControl'.
    6 notices suppressed.


****************************************************************
Transient Analysis `RiseTime-048_RiseTime': time = (0 s -> 3 ns)
****************************************************************
DC simulation time: CPU = 476 us, elapsed = 476.837 us.

Notice from spectre during transient analysis `RiseTime-048_RiseTime', during task `MDLControl'.
    No outputs were found. Loosening output filter criterion to `allpub'.


Opening the PSF file NAND.raw/RiseTime-048_RiseTime.tran.tran ...
Important parameter values:
    start = 0 s
    outputstart = 0 s
    stop = 3 ns
    step = 3 ps
    maxstep = 60 ps
    ic = all
    useprevic = no
    skipdc = no
    reltol = 1e-03
    abstol(V) = 1 uV
    abstol(I) = 1 pA
    temp = 27 C
    tnom = 27 C
    tempeffects = all
    errpreset = moderate
    method = traponly
    lteratio = 3.5
    relref = sigglobal
    cmin = 0 F
    gmin = 1 pS


Output and IC/nodeset summary:
                 save   3       (current)
                 save   6       (voltage)

........9........8........7........6

Notice from spectre at time = 1.24992 ns during transient analysis `RiseTime-048_RiseTime', during task `MDLControl'.
    Found trapezoidal ringing on node Vb:p.

........9........8........7........6.

Notice from spectre at time = 1.30992 ns during transient analysis `RiseTime-048_RiseTime', during task `MDLControl'.
    Found trapezoidal ringing on node Vb:p.

........9........8........7........6...

Notice from spectre at time = 1.36992 ns during transient analysis `RiseTime-048_RiseTime', during task `MDLControl'.
    Found trapezoidal ringing on node Vb:p.

........9........8........7........6.....

Notice from spectre at time = 1.42992 ns during transient analysis `RiseTime-048_RiseTime', during task `MDLControl'.
    Found trapezoidal ringing on node Vb:p.

........9........8........7........6........5

Notice from spectre at time = 1.54992 ns during transient analysis `RiseTime-048_RiseTime', during task `MDLControl'.
    Found trapezoidal ringing on node Vb:p.
        Further occurrences of this notice will be suppressed.

........9........8........7........6........5........4........3........2........1........0
Number of accepted tran steps =             63

Notice from spectre during transient analysis `RiseTime-048_RiseTime', during task `MDLControl'.
    Trapezoidal ringing is detected during tran analysis.
        Please use method=trap for better results and performance.


Maximum value achieved for any signal of each quantity: 
V: V(X1.M_i_3__m0_x2__m1:sbnode) = 1 V
I: I(Vd:p) = 49.79 uA
If your circuit contains signals of the same quantity that are vastly different in size (such as high voltage circuitry combined with low voltage control circuitry), you should consider specifying global option `bin_relref=yes'.

~~~~~~~~~~~~~~~~~~~~~~~~~~~~~~~~~
Post-Transient Simulation Summary
~~~~~~~~~~~~~~~~~~~~~~~~~~~~~~~~~
   -   To further speed up simulation, consider
          add ++aps on command line
~~~~~~~~~~~~~~~~~~~~~~~~~~~~~~~~~


During simulation, the CPU load for active processors is :
        Spectre  0 (50.4 %)      1 (83.2 %)      2 (100.0 %)     3 (47.9 %)
        Other   
Initial condition solution time: CPU = 522 us, elapsed = 532.15 us.
Intrinsic tran analysis time:    CPU = 11.733 ms, elapsed = 35.666 ms.
Total time required for tran analysis `RiseTime-048_RiseTime': CPU = 13.697 ms, elapsed = 37.852 ms.
Time accumulated: CPU = 1.41533 s, elapsed = 5.55702 s.
Peak resident memory used = 65 Mbytes.


Aggregate audit (12:38:05 PM, Mon Jan 13, 2020):
Time used: CPU = 1.42 s, elapsed = 5.61 s, util. = 25.3%.
Time spent in licensing: elapsed = 27.5 ms.
Peak memory used = 65.5 Mbytes.
Simulation started at: 12:37:59 PM, Mon Jan 13, 2020, ended at: 12:38:05 PM, Mon Jan 13, 2020, with elapsed time (wall clock): 5.61 s.
spectre completes with 0 errors, 3 warnings, and 388 notices.
