
Spectre (R) Circuit Simulator
Version 16.1.0.673.isr14 64bit -- 30 Mar 2018
Copyright (C) 1989-2018 Cadence Design Systems, Inc. All rights reserved worldwide. Cadence and Spectre are registered trademarks of Cadence Design Systems, Inc. All others are the property of their respective holders.

Includes RSA BSAFE(R) Cryptographic or Security Protocol Software from RSA Security, Inc.

User: brunozimmer   Host: itacolomi.lapsi   HostID: 7F0100   PID: 16942
Memory  available: 230.6498 MB  physical: 33.7038 GB
Linux   : CentOS Linux release 7.6.1810 (Core) 
CPU Type: Intel(R) Xeon(R) CPU E3-1220 V2 @ 3.10GHz
        Socket: Processors [Frequency]
        0:       0 [3356.2],  1 [3325.3],  2 [3343.7],  3 [3302.5]
        
System load averages (1min, 5min, 15min) : 25.2 %, 27.8 %, 27.8 %


Simulating `INV.scs' on itacolomi.lapsi at 4:12:20 PM, Thur Jan 9, 2020 (process id: 16942).
Current working directory: /home/brunozimmer/Documentos/Lab05b/Inv
Command line:
    /tools/cadence/SPECTRE161/tools.lnx86/bin/spectre -64 =mdl  \
        InvCinco.mdl INV.scs

Loading /tools/cadence/SPECTRE161/tools.lnx86/cmi/lib/64bit/5.0/libinfineon_sh.so ...
Loading /tools/cadence/SPECTRE161/tools.lnx86/cmi/lib/64bit/5.0/libphilips_o_sh.so ...
Loading /tools/cadence/SPECTRE161/tools.lnx86/cmi/lib/64bit/5.0/libphilips_sh.so ...
Loading /tools/cadence/SPECTRE161/tools.lnx86/cmi/lib/64bit/5.0/libsparam_sh.so ...
Loading /tools/cadence/SPECTRE161/tools.lnx86/cmi/lib/64bit/5.0/libstmodels_sh.so ...
Loading /tools/cadence/SPECTRE161/tools.lnx86/spectre/lib/64bit/mdl/libSpectreEH_sh.so ...

Warning from spectre.
    WARNING (MDL-1452): line 15, column 2: syntax error before or at: export
            unrecognised statement.

Reading file:  /home/brunozimmer/Documentos/Lab05b/Inv/INV.scs
Reading file:  /tools/cadence/SPECTRE161/tools.lnx86/spectre/etc/configs/mapsubckt.cfg
Reading file:  /tools/cadence/SPECTRE161/tools.lnx86/spectre/etc/configs/spectre.cfg
Reading file:  /home/brunozimmer/Documentos/Lab05b/Inv/45nm_LP.pm
Reading file:  /home/brunozimmer/Documentos/Lab05b/Inv/INV.spi
Time for NDB Parsing: CPU = 203.012 ms, elapsed = 215.206 ms.
Time accumulated: CPU = 222.046 ms, elapsed = 215.214 ms.
Peak resident memory used = 52.8 Mbytes.

Reading link:  /tools/cadence/SPECTRE161/tools.lnx86/spectre/etc/ahdl/discipline.h
Reading file:  /tools/cadence/SPECTRE161/tools.lnx86/spectre/etc/ahdl/disciplines.vams
Reading link:  /tools/cadence/SPECTRE161/tools.lnx86/spectre/etc/ahdl/constants.h
Reading file:  /tools/cadence/SPECTRE161/tools.lnx86/spectre/etc/ahdl/constants.vams
Time for Elaboration: CPU = 18.038 ms, elapsed = 18.1191 ms.
Time accumulated: CPU = 240.231 ms, elapsed = 233.493 ms.
Peak resident memory used = 59.6 Mbytes.


Warning from spectre during hierarchy flattening.
    WARNING (SFE-2468): A MDL control file 'InvCinco.mdl' is specified.  All .measure, .print and .probe statements in netlist 'INV.scs' are ignored.



Warning from spectre during circuit read-in.
    WARNING:     Analysis tran for .print not found, ignoring

Time for EDB Visiting: CPU = 800 us, elapsed = 828.028 us.
Time accumulated: CPU = 241.187 ms, elapsed = 234.493 ms.
Peak resident memory used = 60.3 Mbytes.


Global user options:
             rawfmt = psfbin

Scoped user options:

Circuit inventory:
              nodes 3
              bsim4 2     
          capacitor 1     
            vsource 2     

Analysis and control statement inventory:
               tran 1     

Output statements:
             .probe 1     
           .measure 0     
               save 0     

Time for parsing: CPU = 2.179 ms, elapsed = 57.7981 ms.
Time accumulated: CPU = 243.477 ms, elapsed = 292.42 ms.
Peak resident memory used = 61.6 Mbytes.

~~~~~~~~~~~~~~~~~~~~~~
Pre-Simulation Summary
~~~~~~~~~~~~~~~~~~~~~~
~~~~~~~~~~~~~~~~~~~~~~

****************************************************************
Transient Analysis `RiseTime-000_RiseTime': time = (0 s -> 4 ns)
****************************************************************
DC simulation time: CPU = 541 us, elapsed = 541.21 us.

Notice from spectre during transient analysis `RiseTime-000_RiseTime', during task `MDLControl'.
    No outputs were found. Loosening output filter criterion to `allpub'.


Opening the PSF file INV.raw/RiseTime-000_RiseTime.tran.tran ...
Important parameter values:
    start = 0 s
    outputstart = 0 s
    stop = 4 ns
    step = 4 ps
    maxstep = 80 ps
    ic = all
    useprevic = no
    skipdc = no
    reltol = 1e-03
    abstol(V) = 1 uV
    abstol(I) = 1 pA
    temp = 1 C
    tnom = 27 C
    tempeffects = all
    errpreset = moderate
    method = traponly
    lteratio = 3.5
    relref = sigglobal
    cmin = 0 F
    gmin = 1 pS


Warning from spectre during transient analysis `RiseTime-000_RiseTime', during task `MDLControl'.
    WARNING (SFE-421): Undefined parameter name `RTime'.
    WARNING (SFE-421): Undefined parameter name `t'.
    WARNING (MDL-1565): validate object failure -- parameter or terminal 'RTime' not found in specified scope.
    WARNING (MDL-1571):  Can not find identifier 'RTime' for LHS.
    WARNING (MDL-1101): line `8': MDL expression for identifier 'RTime' can not be evaluated due to previous errors.
    WARNING (MDL-1565): validate object failure -- parameter or terminal 't' not found in specified scope.
    WARNING (MDL-1571):  Can not find identifier 't' for LHS.
    WARNING (MDL-1101): line `9': MDL expression for identifier 't' can not be evaluated due to previous errors.


Output and IC/nodeset summary:
                 save   2       (current)
                 save   3       (voltage)

........9........8........7........6.

Notice from spectre at time = 1.71137 ns during transient analysis `RiseTime-000_RiseTime', during task `MDLControl'.
    Found trapezoidal ringing on node Va:p.

........9........8........7........6...

Notice from spectre at time = 1.79137 ns during transient analysis `RiseTime-000_RiseTime', during task `MDLControl'.
    Found trapezoidal ringing on node Va:p.

........9........8........7........6....

Notice from spectre at time = 1.87137 ns during transient analysis `RiseTime-000_RiseTime', during task `MDLControl'.
    Found trapezoidal ringing on node Va:p.

........9........8........7........6......

Notice from spectre at time = 1.95137 ns during transient analysis `RiseTime-000_RiseTime', during task `MDLControl'.
    Found trapezoidal ringing on node Va:p.

........9........8........7........6........

Notice from spectre at time = 2.03137 ns during transient analysis `RiseTime-000_RiseTime', during task `MDLControl'.
    Found trapezoidal ringing on node Va:p.
        Further occurrences of this notice will be suppressed.

........9........8........7........6........5........4........3........2........1........0
Number of accepted tran steps =             79

Notice from spectre during transient analysis `RiseTime-000_RiseTime', during task `MDLControl'.
    Trapezoidal ringing is detected during tran analysis.
        Please use method=trap for better results and performance.


Maximum value achieved for any signal of each quantity: 
V: V(out) = 1.013 V
I: I(Va:p) = 11.36 uA
If your circuit contains signals of the same quantity that are vastly different in size (such as high voltage circuitry combined with low voltage control circuitry), you should consider specifying global option `bin_relref=yes'.

~~~~~~~~~~~~~~~~~~~~~~~~~~~~~~~~~
Post-Transient Simulation Summary
~~~~~~~~~~~~~~~~~~~~~~~~~~~~~~~~~
   -   To further speed up simulation, consider
          add ++aps on command line
~~~~~~~~~~~~~~~~~~~~~~~~~~~~~~~~~


During simulation, the CPU load for active processors is :
        Spectre  0 (21.9 %)      1 (66.7 %)      2 (100.0 %)     3 (32.3 %)
        Other   
Initial condition solution time: CPU = 599 us, elapsed = 604.868 us.
Intrinsic tran analysis time:    CPU = 8.891 ms, elapsed = 40.1828 ms.
Total time required for tran analysis `RiseTime-000_RiseTime': CPU = 11.032 ms, elapsed = 42.486 ms.
Time accumulated: CPU = 261.713 ms, elapsed = 365.017 ms.
Peak resident memory used = 64.2 Mbytes.


Notice from spectre during task `MDLControl'.
    25 notices suppressed.


************************************************************************
Transient Analysis `Capacitancia-000_Capacitancia': time = (0 s -> 4 ns)
************************************************************************
DC simulation time: CPU = 280 us, elapsed = 281.096 us.

Notice from spectre during transient analysis `Capacitancia-000_Capacitancia', during task `MDLControl'.
    No outputs were found. Loosening output filter criterion to `allpub'.


Opening the PSF file INV.raw/Capacitancia-000_Capacitancia.tran.tran ...
Important parameter values:
    start = 0 s
    outputstart = 0 s
    stop = 4 ns
    step = 4 ps
    maxstep = 80 ps
    ic = all
    useprevic = no
    skipdc = no
    reltol = 1e-03
    abstol(V) = 1 uV
    abstol(I) = 1 pA
    temp = 1 C
    tnom = 27 C
    tempeffects = all
    errpreset = moderate
    method = traponly
    lteratio = 3.5
    relref = sigglobal
    cmin = 0 F
    gmin = 1 pS


Warning from spectre during transient analysis `Capacitancia-000_Capacitancia', during task `MDLControl'.
    WARNING (SFE-421): Undefined parameter name `t'.
    WARNING (MDL-1565): validate object failure -- parameter or terminal 't' not found in specified scope.
    WARNING (MDL-1101): line `3': MDL expression for identifier 'Cap' can not be evaluated due to previous errors.


Output and IC/nodeset summary:
                 save   2       (current)
                 save   3       (voltage)

........9........8........7........6.

Notice from spectre at time = 1.71137 ns during transient analysis `Capacitancia-000_Capacitancia', during task `MDLControl'.
    Found trapezoidal ringing on node Va:p.

........9........8........7........6...

Notice from spectre at time = 1.79137 ns during transient analysis `Capacitancia-000_Capacitancia', during task `MDLControl'.
    Found trapezoidal ringing on node Va:p.

........9........8........7........6....

Notice from spectre at time = 1.87137 ns during transient analysis `Capacitancia-000_Capacitancia', during task `MDLControl'.
    Found trapezoidal ringing on node Va:p.

........9........8........7........6......

Notice from spectre at time = 1.95137 ns during transient analysis `Capacitancia-000_Capacitancia', during task `MDLControl'.
    Found trapezoidal ringing on node Va:p.

........9........8........7........6........

Notice from spectre at time = 2.03137 ns during transient analysis `Capacitancia-000_Capacitancia', during task `MDLControl'.
    Found trapezoidal ringing on node Va:p.
        Further occurrences of this notice will be suppressed.

........9........8........7........6........5........4........3........2........1........0
Number of accepted tran steps =             79

Notice from spectre during transient analysis `Capacitancia-000_Capacitancia', during task `MDLControl'.
    Trapezoidal ringing is detected during tran analysis.
        Please use method=trap for better results and performance.


Maximum value achieved for any signal of each quantity: 
V: V(out) = 1.013 V
I: I(Va:p) = 11.36 uA
If your circuit contains signals of the same quantity that are vastly different in size (such as high voltage circuitry combined with low voltage control circuitry), you should consider specifying global option `bin_relref=yes'.

~~~~~~~~~~~~~~~~~~~~~~~~~~~~~~~~~
Post-Transient Simulation Summary
~~~~~~~~~~~~~~~~~~~~~~~~~~~~~~~~~
   -   To further speed up simulation, consider
          add ++aps on command line
~~~~~~~~~~~~~~~~~~~~~~~~~~~~~~~~~


During simulation, the CPU load for active processors is :
        Spectre  0 (23.7 %)      1 (61.0 %)      2 (100.0 %)     3 (33.3 %)
        Other   
Initial condition solution time: CPU = 320 us, elapsed = 325.918 us.
Intrinsic tran analysis time:    CPU = 8.369 ms, elapsed = 32.392 ms.
Total time required for tran analysis `Capacitancia-000_Capacitancia': CPU = 9.743 ms, elapsed = 33.9122 ms.
Time accumulated: CPU = 276.712 ms, elapsed = 430.872 ms.
Peak resident memory used = 64.2 Mbytes.


Notice from spectre during task `MDLControl'.
    25 notices suppressed.


****************************************************************
Transient Analysis `RiseTime-001_RiseTime': time = (0 s -> 4 ns)
****************************************************************
DC simulation time: CPU = 252 us, elapsed = 253.916 us.

Notice from spectre during transient analysis `RiseTime-001_RiseTime', during task `MDLControl'.
    No outputs were found. Loosening output filter criterion to `allpub'.


Opening the PSF file INV.raw/RiseTime-001_RiseTime.tran.tran ...
Important parameter values:
    start = 0 s
    outputstart = 0 s
    stop = 4 ns
    step = 4 ps
    maxstep = 80 ps
    ic = all
    useprevic = no
    skipdc = no
    reltol = 1e-03
    abstol(V) = 1 uV
    abstol(I) = 1 pA
    temp = 2 C
    tnom = 27 C
    tempeffects = all
    errpreset = moderate
    method = traponly
    lteratio = 3.5
    relref = sigglobal
    cmin = 0 F
    gmin = 1 pS


Warning from spectre during transient analysis `RiseTime-001_RiseTime', during task `MDLControl'.
    WARNING (SFE-421): Undefined parameter name `RTime'.
    WARNING (SFE-421): Undefined parameter name `t'.
    WARNING (MDL-1565): validate object failure -- parameter or terminal 'RTime' not found in specified scope.
    WARNING (MDL-1571):  Can not find identifier 'RTime' for LHS.
    WARNING (MDL-1101): line `8': MDL expression for identifier 'RTime' can not be evaluated due to previous errors.
    WARNING (MDL-1565): validate object failure -- parameter or terminal 't' not found in specified scope.
    WARNING (MDL-1571):  Can not find identifier 't' for LHS.
    WARNING (MDL-1101): line `9': MDL expression for identifier 't' can not be evaluated due to previous errors.


Output and IC/nodeset summary:
                 save   2       (current)
                 save   3       (voltage)

........9........8........7.......

Notice from spectre at time = 1.58055 ns during transient analysis `RiseTime-001_RiseTime', during task `MDLControl'.
    Found trapezoidal ringing on node Vd:p.

........9........8........7........6

Notice from spectre at time = 1.66055 ns during transient analysis `RiseTime-001_RiseTime', during task `MDLControl'.
    Found trapezoidal ringing on node Vd:p.

........9........8........7........6.

Notice from spectre at time = 1.74055 ns during transient analysis `RiseTime-001_RiseTime', during task `MDLControl'.
    Found trapezoidal ringing on node Vd:p.

........9........8........7........6...

Notice from spectre at time = 1.82055 ns during transient analysis `RiseTime-001_RiseTime', during task `MDLControl'.
    Found trapezoidal ringing on node Vd:p.

........9........8........7........6.....

Notice from spectre at time = 1.90055 ns during transient analysis `RiseTime-001_RiseTime', during task `MDLControl'.
    Found trapezoidal ringing on node Vd:p.
        Further occurrences of this notice will be suppressed.

........9........8........7........6........5........4........3........2........1........0
Number of accepted tran steps =             81

Notice from spectre during transient analysis `RiseTime-001_RiseTime', during task `MDLControl'.
    Trapezoidal ringing is detected during tran analysis.
        Please use method=trap for better results and performance.


Maximum value achieved for any signal of each quantity: 
V: V(out) = 1.014 V
I: I(Va:p) = 11.33 uA
If your circuit contains signals of the same quantity that are vastly different in size (such as high voltage circuitry combined with low voltage control circuitry), you should consider specifying global option `bin_relref=yes'.

~~~~~~~~~~~~~~~~~~~~~~~~~~~~~~~~~
Post-Transient Simulation Summary
~~~~~~~~~~~~~~~~~~~~~~~~~~~~~~~~~
   -   To further speed up simulation, consider
          add ++aps on command line
~~~~~~~~~~~~~~~~~~~~~~~~~~~~~~~~~


During simulation, the CPU load for active processors is :
        Spectre  0 (26.7 %)      1 (56.5 %)      2 (100.0 %)     3 (31.1 %)
        Other   
Initial condition solution time: CPU = 299 us, elapsed = 305.891 us.
Intrinsic tran analysis time:    CPU = 8.417 ms, elapsed = 32.2499 ms.
Total time required for tran analysis `RiseTime-001_RiseTime': CPU = 9.943 ms, elapsed = 33.942 ms.
Time accumulated: CPU = 292.614 ms, elapsed = 497.923 ms.
Peak resident memory used = 64.2 Mbytes.


Notice from spectre during task `MDLControl'.
    27 notices suppressed.


************************************************************************
Transient Analysis `Capacitancia-001_Capacitancia': time = (0 s -> 4 ns)
************************************************************************
DC simulation time: CPU = 316 us, elapsed = 316.858 us.

Notice from spectre during transient analysis `Capacitancia-001_Capacitancia', during task `MDLControl'.
    No outputs were found. Loosening output filter criterion to `allpub'.


Opening the PSF file INV.raw/Capacitancia-001_Capacitancia.tran.tran ...
Important parameter values:
    start = 0 s
    outputstart = 0 s
    stop = 4 ns
    step = 4 ps
    maxstep = 80 ps
    ic = all
    useprevic = no
    skipdc = no
    reltol = 1e-03
    abstol(V) = 1 uV
    abstol(I) = 1 pA
    temp = 2 C
    tnom = 27 C
    tempeffects = all
    errpreset = moderate
    method = traponly
    lteratio = 3.5
    relref = sigglobal
    cmin = 0 F
    gmin = 1 pS


Warning from spectre during transient analysis `Capacitancia-001_Capacitancia', during task `MDLControl'.
    WARNING (SFE-421): Undefined parameter name `t'.
    WARNING (MDL-1565): validate object failure -- parameter or terminal 't' not found in specified scope.
    WARNING (MDL-1101): line `3': MDL expression for identifier 'Cap' can not be evaluated due to previous errors.


Output and IC/nodeset summary:
                 save   2       (current)
                 save   3       (voltage)

........9........8........7.......

Notice from spectre at time = 1.58055 ns during transient analysis `Capacitancia-001_Capacitancia', during task `MDLControl'.
    Found trapezoidal ringing on node Vd:p.

........9........8........7........6

Notice from spectre at time = 1.66055 ns during transient analysis `Capacitancia-001_Capacitancia', during task `MDLControl'.
    Found trapezoidal ringing on node Vd:p.

........9........8........7........6.

Notice from spectre at time = 1.74055 ns during transient analysis `Capacitancia-001_Capacitancia', during task `MDLControl'.
    Found trapezoidal ringing on node Vd:p.

........9........8........7........6...

Notice from spectre at time = 1.82055 ns during transient analysis `Capacitancia-001_Capacitancia', during task `MDLControl'.
    Found trapezoidal ringing on node Vd:p.

........9........8........7........6.....

Notice from spectre at time = 1.90055 ns during transient analysis `Capacitancia-001_Capacitancia', during task `MDLControl'.
    Found trapezoidal ringing on node Vd:p.
        Further occurrences of this notice will be suppressed.

........9........8........7........6........5........4........3........2........1........0
Number of accepted tran steps =             81

Notice from spectre during transient analysis `Capacitancia-001_Capacitancia', during task `MDLControl'.
    Trapezoidal ringing is detected during tran analysis.
        Please use method=trap for better results and performance.


Maximum value achieved for any signal of each quantity: 
V: V(out) = 1.014 V
I: I(Va:p) = 11.33 uA
If your circuit contains signals of the same quantity that are vastly different in size (such as high voltage circuitry combined with low voltage control circuitry), you should consider specifying global option `bin_relref=yes'.

~~~~~~~~~~~~~~~~~~~~~~~~~~~~~~~~~
Post-Transient Simulation Summary
~~~~~~~~~~~~~~~~~~~~~~~~~~~~~~~~~
   -   To further speed up simulation, consider
          add ++aps on command line
~~~~~~~~~~~~~~~~~~~~~~~~~~~~~~~~~


During simulation, the CPU load for active processors is :
        Spectre  0 (27.5 %)      1 (52.7 %)      2 (100.0 %)     3 (28.8 %)
        Other   
Initial condition solution time: CPU = 364 us, elapsed = 375.986 us.
Intrinsic tran analysis time:    CPU = 7.951 ms, elapsed = 30.683 ms.
Total time required for tran analysis `Capacitancia-001_Capacitancia': CPU = 9.539 ms, elapsed = 32.459 ms.
Time accumulated: CPU = 307.411 ms, elapsed = 562.954 ms.
Peak resident memory used = 64.2 Mbytes.


Notice from spectre during task `MDLControl'.
    27 notices suppressed.


****************************************************************
Transient Analysis `RiseTime-002_RiseTime': time = (0 s -> 4 ns)
****************************************************************
DC simulation time: CPU = 257 us, elapsed = 257.969 us.

Notice from spectre during transient analysis `RiseTime-002_RiseTime', during task `MDLControl'.
    No outputs were found. Loosening output filter criterion to `allpub'.


Opening the PSF file INV.raw/RiseTime-002_RiseTime.tran.tran ...
Important parameter values:
    start = 0 s
    outputstart = 0 s
    stop = 4 ns
    step = 4 ps
    maxstep = 80 ps
    ic = all
    useprevic = no
    skipdc = no
    reltol = 1e-03
    abstol(V) = 1 uV
    abstol(I) = 1 pA
    temp = 3 C
    tnom = 27 C
    tempeffects = all
    errpreset = moderate
    method = traponly
    lteratio = 3.5
    relref = sigglobal
    cmin = 0 F
    gmin = 1 pS


Warning from spectre during transient analysis `RiseTime-002_RiseTime', during task `MDLControl'.
    WARNING (SFE-421): Undefined parameter name `RTime'.
    WARNING (SFE-421): Undefined parameter name `t'.
    WARNING (MDL-1565): validate object failure -- parameter or terminal 'RTime' not found in specified scope.
    WARNING (MDL-1571):  Can not find identifier 'RTime' for LHS.
    WARNING (MDL-1101): line `8': MDL expression for identifier 'RTime' can not be evaluated due to previous errors.
    WARNING (MDL-1565): validate object failure -- parameter or terminal 't' not found in specified scope.
    WARNING (MDL-1571):  Can not find identifier 't' for LHS.
    WARNING (MDL-1101): line `9': MDL expression for identifier 't' can not be evaluated due to previous errors.


Output and IC/nodeset summary:
                 save   2       (current)
                 save   3       (voltage)

........9........8........7.......

Notice from spectre at time = 1.57808 ns during transient analysis `RiseTime-002_RiseTime', during task `MDLControl'.
    Found trapezoidal ringing on node Vd:p.

........9........8........7........6

Notice from spectre at time = 1.65808 ns during transient analysis `RiseTime-002_RiseTime', during task `MDLControl'.
    Found trapezoidal ringing on node Vd:p.

........9........8........7........6.

Notice from spectre at time = 1.73808 ns during transient analysis `RiseTime-002_RiseTime', during task `MDLControl'.
    Found trapezoidal ringing on node Vd:p.

........9........8........7........6...

Notice from spectre at time = 1.81808 ns during transient analysis `RiseTime-002_RiseTime', during task `MDLControl'.
    Found trapezoidal ringing on node Vd:p.

........9........8........7........6.....

Notice from spectre at time = 1.89808 ns during transient analysis `RiseTime-002_RiseTime', during task `MDLControl'.
    Found trapezoidal ringing on node Vd:p.
        Further occurrences of this notice will be suppressed.

........9........8........7........6........5........4........3........2........1........0
Number of accepted tran steps =             81

Notice from spectre during transient analysis `RiseTime-002_RiseTime', during task `MDLControl'.
    Trapezoidal ringing is detected during tran analysis.
        Please use method=trap for better results and performance.


Maximum value achieved for any signal of each quantity: 
V: V(out) = 1.014 V
I: I(Va:p) = 11.3 uA
If your circuit contains signals of the same quantity that are vastly different in size (such as high voltage circuitry combined with low voltage control circuitry), you should consider specifying global option `bin_relref=yes'.

~~~~~~~~~~~~~~~~~~~~~~~~~~~~~~~~~
Post-Transient Simulation Summary
~~~~~~~~~~~~~~~~~~~~~~~~~~~~~~~~~
   -   To further speed up simulation, consider
          add ++aps on command line
~~~~~~~~~~~~~~~~~~~~~~~~~~~~~~~~~


During simulation, the CPU load for active processors is :
        Spectre  0 (25.9 %)      1 (50.8 %)      2 (100.0 %)     3 (27.1 %)
        Other   
Initial condition solution time: CPU = 295 us, elapsed = 295.877 us.
Intrinsic tran analysis time:    CPU = 7.773 ms, elapsed = 31.059 ms.
Total time required for tran analysis `RiseTime-002_RiseTime': CPU = 9.15 ms, elapsed = 32.433 ms.
Time accumulated: CPU = 322.733 ms, elapsed = 630.119 ms.
Peak resident memory used = 64.2 Mbytes.


Notice from spectre during task `MDLControl'.
    27 notices suppressed.


************************************************************************
Transient Analysis `Capacitancia-002_Capacitancia': time = (0 s -> 4 ns)
************************************************************************
DC simulation time: CPU = 271 us, elapsed = 272.036 us.

Notice from spectre during transient analysis `Capacitancia-002_Capacitancia', during task `MDLControl'.
    No outputs were found. Loosening output filter criterion to `allpub'.


Opening the PSF file INV.raw/Capacitancia-002_Capacitancia.tran.tran ...
Important parameter values:
    start = 0 s
    outputstart = 0 s
    stop = 4 ns
    step = 4 ps
    maxstep = 80 ps
    ic = all
    useprevic = no
    skipdc = no
    reltol = 1e-03
    abstol(V) = 1 uV
    abstol(I) = 1 pA
    temp = 3 C
    tnom = 27 C
    tempeffects = all
    errpreset = moderate
    method = traponly
    lteratio = 3.5
    relref = sigglobal
    cmin = 0 F
    gmin = 1 pS


Warning from spectre during transient analysis `Capacitancia-002_Capacitancia', during task `MDLControl'.
    WARNING (SFE-421): Undefined parameter name `t'.
    WARNING (MDL-1565): validate object failure -- parameter or terminal 't' not found in specified scope.
    WARNING (MDL-1101): line `3': MDL expression for identifier 'Cap' can not be evaluated due to previous errors.


Output and IC/nodeset summary:
                 save   2       (current)
                 save   3       (voltage)

........9........8........7.......

Notice from spectre at time = 1.57808 ns during transient analysis `Capacitancia-002_Capacitancia', during task `MDLControl'.
    Found trapezoidal ringing on node Vd:p.

........9........8........7........6

Notice from spectre at time = 1.65808 ns during transient analysis `Capacitancia-002_Capacitancia', during task `MDLControl'.
    Found trapezoidal ringing on node Vd:p.

........9........8........7........6.

Notice from spectre at time = 1.73808 ns during transient analysis `Capacitancia-002_Capacitancia', during task `MDLControl'.
    Found trapezoidal ringing on node Vd:p.

........9........8........7........6...

Notice from spectre at time = 1.81808 ns during transient analysis `Capacitancia-002_Capacitancia', during task `MDLControl'.
    Found trapezoidal ringing on node Vd:p.

........9........8........7........6.....

Notice from spectre at time = 1.89808 ns during transient analysis `Capacitancia-002_Capacitancia', during task `MDLControl'.
    Found trapezoidal ringing on node Vd:p.
        Further occurrences of this notice will be suppressed.

........9........8........7........6........5........4........3........2........1........0
Number of accepted tran steps =             81

Notice from spectre during transient analysis `Capacitancia-002_Capacitancia', during task `MDLControl'.
    Trapezoidal ringing is detected during tran analysis.
        Please use method=trap for better results and performance.


Maximum value achieved for any signal of each quantity: 
V: V(out) = 1.014 V
I: I(Va:p) = 11.3 uA
If your circuit contains signals of the same quantity that are vastly different in size (such as high voltage circuitry combined with low voltage control circuitry), you should consider specifying global option `bin_relref=yes'.

~~~~~~~~~~~~~~~~~~~~~~~~~~~~~~~~~
Post-Transient Simulation Summary
~~~~~~~~~~~~~~~~~~~~~~~~~~~~~~~~~
   -   To further speed up simulation, consider
          add ++aps on command line
~~~~~~~~~~~~~~~~~~~~~~~~~~~~~~~~~


During simulation, the CPU load for active processors is :
        Spectre  0 (26.6 %)      1 (50.7 %)      2 (100.0 %)     3 (24.6 %)
        Other   
Initial condition solution time: CPU = 328 us, elapsed = 333.786 us.
Intrinsic tran analysis time:    CPU = 7.746 ms, elapsed = 30.894 ms.
Total time required for tran analysis `Capacitancia-002_Capacitancia': CPU = 9.175 ms, elapsed = 32.4728 ms.
Time accumulated: CPU = 337.321 ms, elapsed = 696.446 ms.
Peak resident memory used = 64.3 Mbytes.


Notice from spectre during task `MDLControl'.
    27 notices suppressed.


****************************************************************
Transient Analysis `RiseTime-003_RiseTime': time = (0 s -> 4 ns)
****************************************************************
DC simulation time: CPU = 276 us, elapsed = 277.042 us.

Notice from spectre during transient analysis `RiseTime-003_RiseTime', during task `MDLControl'.
    No outputs were found. Loosening output filter criterion to `allpub'.


Opening the PSF file INV.raw/RiseTime-003_RiseTime.tran.tran ...
Important parameter values:
    start = 0 s
    outputstart = 0 s
    stop = 4 ns
    step = 4 ps
    maxstep = 80 ps
    ic = all
    useprevic = no
    skipdc = no
    reltol = 1e-03
    abstol(V) = 1 uV
    abstol(I) = 1 pA
    temp = 4 C
    tnom = 27 C
    tempeffects = all
    errpreset = moderate
    method = traponly
    lteratio = 3.5
    relref = sigglobal
    cmin = 0 F
    gmin = 1 pS


Warning from spectre during transient analysis `RiseTime-003_RiseTime', during task `MDLControl'.
    WARNING (SFE-421): Undefined parameter name `RTime'.
    WARNING (SFE-421): Undefined parameter name `t'.
    WARNING (MDL-1565): validate object failure -- parameter or terminal 'RTime' not found in specified scope.
    WARNING (MDL-1571):  Can not find identifier 'RTime' for LHS.
    WARNING (MDL-1101): line `8': MDL expression for identifier 'RTime' can not be evaluated due to previous errors.
    WARNING (MDL-1565): validate object failure -- parameter or terminal 't' not found in specified scope.
    WARNING (MDL-1571):  Can not find identifier 't' for LHS.
    WARNING (MDL-1101): line `9': MDL expression for identifier 't' can not be evaluated due to previous errors.


Output and IC/nodeset summary:
                 save   2       (current)
                 save   3       (voltage)

........9........8........7.......

Notice from spectre at time = 1.57728 ns during transient analysis `RiseTime-003_RiseTime', during task `MDLControl'.
    Found trapezoidal ringing on node Vd:p.

........9........8........7........

Notice from spectre at time = 1.65728 ns during transient analysis `RiseTime-003_RiseTime', during task `MDLControl'.
    Found trapezoidal ringing on node Vd:p.

........9........8........7........6.

Notice from spectre at time = 1.73728 ns during transient analysis `RiseTime-003_RiseTime', during task `MDLControl'.
    Found trapezoidal ringing on node Vd:p.

........9........8........7........6...

Notice from spectre at time = 1.81728 ns during transient analysis `RiseTime-003_RiseTime', during task `MDLControl'.
    Found trapezoidal ringing on node Vd:p.

........9........8........7........6.....

Notice from spectre at time = 1.89728 ns during transient analysis `RiseTime-003_RiseTime', during task `MDLControl'.
    Found trapezoidal ringing on node Vd:p.
        Further occurrences of this notice will be suppressed.

........9........8........7........6........5........4........3........2........1........0
Number of accepted tran steps =             81

Notice from spectre during transient analysis `RiseTime-003_RiseTime', during task `MDLControl'.
    Trapezoidal ringing is detected during tran analysis.
        Please use method=trap for better results and performance.


Maximum value achieved for any signal of each quantity: 
V: V(out) = 1.014 V
I: I(Va:p) = 11.27 uA
If your circuit contains signals of the same quantity that are vastly different in size (such as high voltage circuitry combined with low voltage control circuitry), you should consider specifying global option `bin_relref=yes'.

~~~~~~~~~~~~~~~~~~~~~~~~~~~~~~~~~
Post-Transient Simulation Summary
~~~~~~~~~~~~~~~~~~~~~~~~~~~~~~~~~
   -   To further speed up simulation, consider
          add ++aps on command line
~~~~~~~~~~~~~~~~~~~~~~~~~~~~~~~~~


During simulation, the CPU load for active processors is :
        Spectre  0 (26.8 %)      1 (48.1 %)      2 (98.6 %)      3 (25.0 %)
        Other   
Initial condition solution time: CPU = 324 us, elapsed = 329.971 us.
Intrinsic tran analysis time:    CPU = 8.997 ms, elapsed = 41.2221 ms.
Total time required for tran analysis `RiseTime-003_RiseTime': CPU = 10.57 ms, elapsed = 42.9878 ms.
Time accumulated: CPU = 353.962 ms, elapsed = 774.03 ms.
Peak resident memory used = 64.3 Mbytes.


Notice from spectre during task `MDLControl'.
    27 notices suppressed.


************************************************************************
Transient Analysis `Capacitancia-003_Capacitancia': time = (0 s -> 4 ns)
************************************************************************
DC simulation time: CPU = 276 us, elapsed = 275.85 us.

Notice from spectre during transient analysis `Capacitancia-003_Capacitancia', during task `MDLControl'.
    No outputs were found. Loosening output filter criterion to `allpub'.


Opening the PSF file INV.raw/Capacitancia-003_Capacitancia.tran.tran ...
Important parameter values:
    start = 0 s
    outputstart = 0 s
    stop = 4 ns
    step = 4 ps
    maxstep = 80 ps
    ic = all
    useprevic = no
    skipdc = no
    reltol = 1e-03
    abstol(V) = 1 uV
    abstol(I) = 1 pA
    temp = 4 C
    tnom = 27 C
    tempeffects = all
    errpreset = moderate
    method = traponly
    lteratio = 3.5
    relref = sigglobal
    cmin = 0 F
    gmin = 1 pS


Warning from spectre during transient analysis `Capacitancia-003_Capacitancia', during task `MDLControl'.
    WARNING (SFE-421): Undefined parameter name `t'.
    WARNING (MDL-1565): validate object failure -- parameter or terminal 't' not found in specified scope.
    WARNING (MDL-1101): line `3': MDL expression for identifier 'Cap' can not be evaluated due to previous errors.


Output and IC/nodeset summary:
                 save   2       (current)
                 save   3       (voltage)

........9........8........7.......

Notice from spectre at time = 1.57728 ns during transient analysis `Capacitancia-003_Capacitancia', during task `MDLControl'.
    Found trapezoidal ringing on node Vd:p.

........9........8........7........

Notice from spectre at time = 1.65728 ns during transient analysis `Capacitancia-003_Capacitancia', during task `MDLControl'.
    Found trapezoidal ringing on node Vd:p.

........9........8........7........6.

Notice from spectre at time = 1.73728 ns during transient analysis `Capacitancia-003_Capacitancia', during task `MDLControl'.
    Found trapezoidal ringing on node Vd:p.

........9........8........7........6...

Notice from spectre at time = 1.81728 ns during transient analysis `Capacitancia-003_Capacitancia', during task `MDLControl'.
    Found trapezoidal ringing on node Vd:p.

........9........8........7........6.....

Notice from spectre at time = 1.89728 ns during transient analysis `Capacitancia-003_Capacitancia', during task `MDLControl'.
    Found trapezoidal ringing on node Vd:p.
        Further occurrences of this notice will be suppressed.

........9........8........7........6........5........4........3........2........1........0
Number of accepted tran steps =             81

Notice from spectre during transient analysis `Capacitancia-003_Capacitancia', during task `MDLControl'.
    Trapezoidal ringing is detected during tran analysis.
        Please use method=trap for better results and performance.


Maximum value achieved for any signal of each quantity: 
V: V(out) = 1.014 V
I: I(Va:p) = 11.27 uA
If your circuit contains signals of the same quantity that are vastly different in size (such as high voltage circuitry combined with low voltage control circuitry), you should consider specifying global option `bin_relref=yes'.

~~~~~~~~~~~~~~~~~~~~~~~~~~~~~~~~~
Post-Transient Simulation Summary
~~~~~~~~~~~~~~~~~~~~~~~~~~~~~~~~~
   -   To further speed up simulation, consider
          add ++aps on command line
~~~~~~~~~~~~~~~~~~~~~~~~~~~~~~~~~


During simulation, the CPU load for active processors is :
        Spectre  0 (28.2 %)      1 (46.3 %)      2 (91.4 %)      3 (24.4 %)
        Other   
Initial condition solution time: CPU = 313 us, elapsed = 316.143 us.
Intrinsic tran analysis time:    CPU = 8.214 ms, elapsed = 32.3529 ms.
Total time required for tran analysis `Capacitancia-003_Capacitancia': CPU = 9.61 ms, elapsed = 33.7858 ms.
Time accumulated: CPU = 368.942 ms, elapsed = 839.542 ms.
Peak resident memory used = 64.3 Mbytes.


Notice from spectre during task `MDLControl'.
    27 notices suppressed.


****************************************************************
Transient Analysis `RiseTime-004_RiseTime': time = (0 s -> 4 ns)
****************************************************************
DC simulation time: CPU = 287 us, elapsed = 288.01 us.

Notice from spectre during transient analysis `RiseTime-004_RiseTime', during task `MDLControl'.
    No outputs were found. Loosening output filter criterion to `allpub'.


Opening the PSF file INV.raw/RiseTime-004_RiseTime.tran.tran ...
Important parameter values:
    start = 0 s
    outputstart = 0 s
    stop = 4 ns
    step = 4 ps
    maxstep = 80 ps
    ic = all
    useprevic = no
    skipdc = no
    reltol = 1e-03
    abstol(V) = 1 uV
    abstol(I) = 1 pA
    temp = 5 C
    tnom = 27 C
    tempeffects = all
    errpreset = moderate
    method = traponly
    lteratio = 3.5
    relref = sigglobal
    cmin = 0 F
    gmin = 1 pS


Warning from spectre during transient analysis `RiseTime-004_RiseTime', during task `MDLControl'.
    WARNING (SFE-421): Undefined parameter name `RTime'.
    WARNING (SFE-421): Undefined parameter name `t'.
    WARNING (MDL-1565): validate object failure -- parameter or terminal 'RTime' not found in specified scope.
    WARNING (MDL-1571):  Can not find identifier 'RTime' for LHS.
    WARNING (MDL-1101): line `8': MDL expression for identifier 'RTime' can not be evaluated due to previous errors.
    WARNING (MDL-1565): validate object failure -- parameter or terminal 't' not found in specified scope.
    WARNING (MDL-1571):  Can not find identifier 't' for LHS.
    WARNING (MDL-1101): line `9': MDL expression for identifier 't' can not be evaluated due to previous errors.


Output and IC/nodeset summary:
                 save   2       (current)
                 save   3       (voltage)

........9........8........7.......

Notice from spectre at time = 1.57983 ns during transient analysis `RiseTime-004_RiseTime', during task `MDLControl'.
    Found trapezoidal ringing on node Vd:p.

........9........8........7........6

Notice from spectre at time = 1.65983 ns during transient analysis `RiseTime-004_RiseTime', during task `MDLControl'.
    Found trapezoidal ringing on node Vd:p.

........9........8........7........6.

Notice from spectre at time = 1.73983 ns during transient analysis `RiseTime-004_RiseTime', during task `MDLControl'.
    Found trapezoidal ringing on node Vd:p.

........9........8........7........6...

Notice from spectre at time = 1.81983 ns during transient analysis `RiseTime-004_RiseTime', during task `MDLControl'.
    Found trapezoidal ringing on node Vd:p.

........9........8........7........6.....

Notice from spectre at time = 1.89983 ns during transient analysis `RiseTime-004_RiseTime', during task `MDLControl'.
    Found trapezoidal ringing on node Vd:p.
        Further occurrences of this notice will be suppressed.

........9........8........7........6........5........4........3........2........1........0
Number of accepted tran steps =             81

Notice from spectre during transient analysis `RiseTime-004_RiseTime', during task `MDLControl'.
    Trapezoidal ringing is detected during tran analysis.
        Please use method=trap for better results and performance.


Maximum value achieved for any signal of each quantity: 
V: V(out) = 1.014 V
I: I(Va:p) = 11.25 uA
If your circuit contains signals of the same quantity that are vastly different in size (such as high voltage circuitry combined with low voltage control circuitry), you should consider specifying global option `bin_relref=yes'.

~~~~~~~~~~~~~~~~~~~~~~~~~~~~~~~~~
Post-Transient Simulation Summary
~~~~~~~~~~~~~~~~~~~~~~~~~~~~~~~~~
   -   To further speed up simulation, consider
          add ++aps on command line
~~~~~~~~~~~~~~~~~~~~~~~~~~~~~~~~~


During simulation, the CPU load for active processors is :
        Spectre  0 (29.4 %)      1 (46.1 %)      2 (90.8 %)      3 (25.9 %)
        Other   
Initial condition solution time: CPU = 332 us, elapsed = 342.846 us.
Intrinsic tran analysis time:    CPU = 7.755 ms, elapsed = 30.575 ms.
Total time required for tran analysis `RiseTime-004_RiseTime': CPU = 9.328 ms, elapsed = 32.3699 ms.
Time accumulated: CPU = 384.095 ms, elapsed = 904.873 ms.
Peak resident memory used = 64.3 Mbytes.


Notice from spectre during task `MDLControl'.
    27 notices suppressed.


************************************************************************
Transient Analysis `Capacitancia-004_Capacitancia': time = (0 s -> 4 ns)
************************************************************************
DC simulation time: CPU = 273 us, elapsed = 274.897 us.

Notice from spectre during transient analysis `Capacitancia-004_Capacitancia', during task `MDLControl'.
    No outputs were found. Loosening output filter criterion to `allpub'.


Opening the PSF file INV.raw/Capacitancia-004_Capacitancia.tran.tran ...
Important parameter values:
    start = 0 s
    outputstart = 0 s
    stop = 4 ns
    step = 4 ps
    maxstep = 80 ps
    ic = all
    useprevic = no
    skipdc = no
    reltol = 1e-03
    abstol(V) = 1 uV
    abstol(I) = 1 pA
    temp = 5 C
    tnom = 27 C
    tempeffects = all
    errpreset = moderate
    method = traponly
    lteratio = 3.5
    relref = sigglobal
    cmin = 0 F
    gmin = 1 pS


Warning from spectre during transient analysis `Capacitancia-004_Capacitancia', during task `MDLControl'.
    WARNING (SFE-421): Undefined parameter name `t'.
    WARNING (MDL-1565): validate object failure -- parameter or terminal 't' not found in specified scope.
    WARNING (MDL-1101): line `3': MDL expression for identifier 'Cap' can not be evaluated due to previous errors.


Output and IC/nodeset summary:
                 save   2       (current)
                 save   3       (voltage)

........9........8........7.......

Notice from spectre at time = 1.57983 ns during transient analysis `Capacitancia-004_Capacitancia', during task `MDLControl'.
    Found trapezoidal ringing on node Vd:p.

........9........8........7........6

Notice from spectre at time = 1.65983 ns during transient analysis `Capacitancia-004_Capacitancia', during task `MDLControl'.
    Found trapezoidal ringing on node Vd:p.

........9........8........7........6.

Notice from spectre at time = 1.73983 ns during transient analysis `Capacitancia-004_Capacitancia', during task `MDLControl'.
    Found trapezoidal ringing on node Vd:p.

........9........8........7........6...

Notice from spectre at time = 1.81983 ns during transient analysis `Capacitancia-004_Capacitancia', during task `MDLControl'.
    Found trapezoidal ringing on node Vd:p.

........9........8........7........6.....

Notice from spectre at time = 1.89983 ns during transient analysis `Capacitancia-004_Capacitancia', during task `MDLControl'.
    Found trapezoidal ringing on node Vd:p.
        Further occurrences of this notice will be suppressed.

........9........8........7........6........5........4........3........2........1........0
Number of accepted tran steps =             81

Notice from spectre during transient analysis `Capacitancia-004_Capacitancia', during task `MDLControl'.
    Trapezoidal ringing is detected during tran analysis.
        Please use method=trap for better results and performance.


Maximum value achieved for any signal of each quantity: 
V: V(out) = 1.014 V
I: I(Va:p) = 11.25 uA
If your circuit contains signals of the same quantity that are vastly different in size (such as high voltage circuitry combined with low voltage control circuitry), you should consider specifying global option `bin_relref=yes'.

~~~~~~~~~~~~~~~~~~~~~~~~~~~~~~~~~
Post-Transient Simulation Summary
~~~~~~~~~~~~~~~~~~~~~~~~~~~~~~~~~
   -   To further speed up simulation, consider
          add ++aps on command line
~~~~~~~~~~~~~~~~~~~~~~~~~~~~~~~~~


During simulation, the CPU load for active processors is :
        Spectre  0 (34.1 %)      1 (45.3 %)      2 (85.9 %)      3 (27.5 %)
        Other   
Initial condition solution time: CPU = 322 us, elapsed = 329.018 us.
Intrinsic tran analysis time:    CPU = 8.591 ms, elapsed = 32.361 ms.
Total time required for tran analysis `Capacitancia-004_Capacitancia': CPU = 10.07 ms, elapsed = 34.0021 ms.
Time accumulated: CPU = 399.935 ms, elapsed = 965.316 ms.
Peak resident memory used = 64.3 Mbytes.


Notice from spectre during task `MDLControl'.
    27 notices suppressed.


Aggregate audit (4:12:21 PM, Thur Jan 9, 2020):
Time used: CPU = 403 ms, elapsed = 993 ms, util. = 40.5%.
Time spent in licensing: elapsed = 25.6 ms.
Peak memory used = 64.7 Mbytes.
Simulation started at: 4:12:20 PM, Thur Jan 9, 2020, ended at: 4:12:21 PM, Thur Jan 9, 2020, with elapsed time (wall clock): 993 ms.
spectre completes with 0 errors, 58 warnings, and 80 notices.
