
Spectre (R) Circuit Simulator
Version 16.1.0.673.isr14 64bit -- 30 Mar 2018
Copyright (C) 1989-2018 Cadence Design Systems, Inc. All rights reserved worldwide. Cadence and Spectre are registered trademarks of Cadence Design Systems, Inc. All others are the property of their respective holders.

Includes RSA BSAFE(R) Cryptographic or Security Protocol Software from RSA Security, Inc.

User: brunozimmer   Host: itacolomi.lapsi   HostID: 7F0100   PID: 18208
Memory  available: 261.5050 MB  physical: 33.7038 GB
Linux   : CentOS Linux release 7.6.1810 (Core) 
CPU Type: Intel(R) Xeon(R) CPU E3-1220 V2 @ 3.10GHz
All processors running at 3347.5 MHz
        Socket: Processors
        0:       0,  1,  2,  3
        
System load averages (1min, 5min, 15min) : 28.7 %, 29.0 %, 28.7 %


Simulating `NAND.scs' on itacolomi.lapsi at 11:23:56 AM, Thur Jan 9, 2020 (process id: 18208).
Current working directory: /home/brunozimmer/Documentos/Lab04/Nand
Command line:
    /tools/cadence/SPECTRE161/tools.lnx86/bin/spectre -64 =mdl NAND.mdl  \
        NAND.scs

Loading /tools/cadence/SPECTRE161/tools.lnx86/cmi/lib/64bit/5.0/libinfineon_sh.so ...
Loading /tools/cadence/SPECTRE161/tools.lnx86/cmi/lib/64bit/5.0/libphilips_o_sh.so ...
Loading /tools/cadence/SPECTRE161/tools.lnx86/cmi/lib/64bit/5.0/libphilips_sh.so ...
Loading /tools/cadence/SPECTRE161/tools.lnx86/cmi/lib/64bit/5.0/libsparam_sh.so ...
Loading /tools/cadence/SPECTRE161/tools.lnx86/cmi/lib/64bit/5.0/libstmodels_sh.so ...
Loading /tools/cadence/SPECTRE161/tools.lnx86/spectre/lib/64bit/mdl/libSpectreEH_sh.so ...

Warning from spectre.
    WARNING (MDL-1452): line 1, column 1: syntax error before or at: *
            unrecognised statement.

Reading file:  /home/brunozimmer/Documentos/Lab04/Nand/NAND.scs
Reading file:  /tools/cadence/SPECTRE161/tools.lnx86/spectre/etc/configs/mapsubckt.cfg
Reading file:  /tools/cadence/SPECTRE161/tools.lnx86/spectre/etc/configs/spectre.cfg
Reading file:  /home/brunozimmer/Documentos/Lab04/Nand/NAND2.spi
Reading file:  /home/brunozimmer/Documentos/Lab04/Nand/45nm_LP.pm
Time for NDB Parsing: CPU = 198.899 ms, elapsed = 233.794 ms.
Time accumulated: CPU = 216.681 ms, elapsed = 233.8 ms.
Peak resident memory used = 52.9 Mbytes.

Reading link:  /tools/cadence/SPECTRE161/tools.lnx86/spectre/etc/ahdl/discipline.h
Reading file:  /tools/cadence/SPECTRE161/tools.lnx86/spectre/etc/ahdl/disciplines.vams
Reading link:  /tools/cadence/SPECTRE161/tools.lnx86/spectre/etc/ahdl/constants.h
Reading file:  /tools/cadence/SPECTRE161/tools.lnx86/spectre/etc/ahdl/constants.vams
Time for Elaboration: CPU = 18.026 ms, elapsed = 18.055 ms.
Time accumulated: CPU = 234.857 ms, elapsed = 252.02 ms.
Peak resident memory used = 59.6 Mbytes.


Warning from spectre during hierarchy flattening.
    WARNING (SFE-2468): A MDL control file 'NAND.mdl' is specified.  All .measure, .print and .probe statements in netlist 'NAND.scs' are ignored.



Warning from spectre during circuit read-in.
    WARNING:     Analysis tran for .print not found, ignoring

Time for EDB Visiting: CPU = 853 us, elapsed = 886.917 us.
Time accumulated: CPU = 235.848 ms, elapsed = 253.059 ms.
Peak resident memory used = 60.3 Mbytes.


Global user options:
             rawfmt = psfbin

Scoped user options:

Circuit inventory:
              nodes 6
              bsim4 8     
          capacitor 1     
            vsource 3     

Analysis and control statement inventory:
               tran 1     

Output statements:
             .probe 1     
           .measure 0     
               save 0     

Time for parsing: CPU = 2.33 ms, elapsed = 35.413 ms.
Time accumulated: CPU = 238.299 ms, elapsed = 288.612 ms.
Peak resident memory used = 61.7 Mbytes.

~~~~~~~~~~~~~~~~~~~~~~
Pre-Simulation Summary
~~~~~~~~~~~~~~~~~~~~~~
~~~~~~~~~~~~~~~~~~~~~~

****************************************************************
Transient Analysis `DifTempo-000_DifTempo': time = (0 s -> 3 ns)
****************************************************************
DC simulation time: CPU = 732 us, elapsed = 732.899 us.

Notice from spectre during transient analysis `DifTempo-000_DifTempo', during task `MDLControl'.
    No outputs were found. Loosening output filter criterion to `allpub'.


Opening the PSF file NAND.raw/DifTempo-000_DifTempo.tran.tran ...
Important parameter values:
    start = 0 s
    outputstart = 0 s
    stop = 3 ns
    step = 3 ps
    maxstep = 60 ps
    ic = all
    useprevic = no
    skipdc = no
    reltol = 1e-03
    abstol(V) = 1 uV
    abstol(I) = 1 pA
    temp = 27 C
    tnom = 27 C
    tempeffects = all
    errpreset = moderate
    method = traponly
    lteratio = 3.5
    relref = sigglobal
    cmin = 0 F
    gmin = 1 pS


Output and IC/nodeset summary:
                 save   3       (current)
                 save   6       (voltage)

........9........8........7......

Notice from spectre at time = 1.12974 ns during transient analysis `DifTempo-000_DifTempo', during task `MDLControl'.
    Found trapezoidal ringing on node Va:p.

........9........8........7.......

Notice from spectre at time = 1.17521 ns during transient analysis `DifTempo-000_DifTempo', during task `MDLControl'.
    Found trapezoidal ringing on node Va:p.

........9........8........7........

Notice from spectre at time = 1.23521 ns during transient analysis `DifTempo-000_DifTempo', during task `MDLControl'.
    Found trapezoidal ringing on node Va:p.

........9........8........7........6.

Notice from spectre at time = 1.29521 ns during transient analysis `DifTempo-000_DifTempo', during task `MDLControl'.
    Found trapezoidal ringing on node Va:p.

........9........8........7........6...

Notice from spectre at time = 1.35521 ns during transient analysis `DifTempo-000_DifTempo', during task `MDLControl'.
    Found trapezoidal ringing on node Va:p.
        Further occurrences of this notice will be suppressed.

........9........8........7........6........5........4........3........2........1........0
Number of accepted tran steps =             90

Notice from spectre during transient analysis `DifTempo-000_DifTempo', during task `MDLControl'.
    Trapezoidal ringing is detected during tran analysis.
        Please use method=trap for better results and performance.


Maximum value achieved for any signal of each quantity: 
V: V(X1.M_i_2__m0_x2__m0:sbnode) = 1 V
I: I(Vd:p) = 154.4 uA
If your circuit contains signals of the same quantity that are vastly different in size (such as high voltage circuitry combined with low voltage control circuitry), you should consider specifying global option `bin_relref=yes'.

~~~~~~~~~~~~~~~~~~~~~~~~~~~~~~~~~
Post-Transient Simulation Summary
~~~~~~~~~~~~~~~~~~~~~~~~~~~~~~~~~
   -   To further speed up simulation, consider
          add ++aps on command line
~~~~~~~~~~~~~~~~~~~~~~~~~~~~~~~~~


During simulation, the CPU load for active processors is :
        Spectre  0 (84.2 %)      1 (43.2 %)      2 (64.9 %)      3 (23.7 %)
        Other   
Initial condition solution time: CPU = 790 us, elapsed = 797.987 us.
Intrinsic tran analysis time:    CPU = 14.021 ms, elapsed = 37.4341 ms.
Total time required for tran analysis `DifTempo-000_DifTempo': CPU = 16.274 ms, elapsed = 39.8068 ms.
Time accumulated: CPU = 263.009 ms, elapsed = 417.637 ms.
Peak resident memory used = 64.2 Mbytes.


Notice from spectre during task `MDLControl'.
    28 notices suppressed.


****************************************************************
Transient Analysis `DifTempo-001_DifTempo': time = (0 s -> 3 ns)
****************************************************************
DC simulation time: CPU = 469 us, elapsed = 468.016 us.

Notice from spectre during transient analysis `DifTempo-001_DifTempo', during task `MDLControl'.
    No outputs were found. Loosening output filter criterion to `allpub'.


Opening the PSF file NAND.raw/DifTempo-001_DifTempo.tran.tran ...
Important parameter values:
    start = 0 s
    outputstart = 0 s
    stop = 3 ns
    step = 3 ps
    maxstep = 60 ps
    ic = all
    useprevic = no
    skipdc = no
    reltol = 1e-03
    abstol(V) = 1 uV
    abstol(I) = 1 pA
    temp = 27 C
    tnom = 27 C
    tempeffects = all
    errpreset = moderate
    method = traponly
    lteratio = 3.5
    relref = sigglobal
    cmin = 0 F
    gmin = 1 pS


Output and IC/nodeset summary:
                 save   3       (current)
                 save   6       (voltage)

........9........8........7........

Notice from spectre at time = 1.21155 ns during transient analysis `DifTempo-001_DifTempo', during task `MDLControl'.
    Found trapezoidal ringing on node Va:p.

........9........8........7........6

Notice from spectre at time = 1.27155 ns during transient analysis `DifTempo-001_DifTempo', during task `MDLControl'.
    Found trapezoidal ringing on node Va:p.

........9........8........7........6..

Notice from spectre at time = 1.33155 ns during transient analysis `DifTempo-001_DifTempo', during task `MDLControl'.
    Found trapezoidal ringing on node Va:p.

........9........8........7........6....

Notice from spectre at time = 1.39155 ns during transient analysis `DifTempo-001_DifTempo', during task `MDLControl'.
    Found trapezoidal ringing on node Va:p.

........9........8........7........6......

Notice from spectre at time = 1.45155 ns during transient analysis `DifTempo-001_DifTempo', during task `MDLControl'.
    Found trapezoidal ringing on node Va:p.
        Further occurrences of this notice will be suppressed.

........9........8........7........6........5........4........3........2........1........0
Number of accepted tran steps =             81

Notice from spectre during transient analysis `DifTempo-001_DifTempo', during task `MDLControl'.
    Trapezoidal ringing is detected during tran analysis.
        Please use method=trap for better results and performance.


Maximum value achieved for any signal of each quantity: 
V: V(X1.M_i_3__m0_x2__m1:sbnode) = 1 V
I: I(Vd:p) = 99.53 uA
If your circuit contains signals of the same quantity that are vastly different in size (such as high voltage circuitry combined with low voltage control circuitry), you should consider specifying global option `bin_relref=yes'.

~~~~~~~~~~~~~~~~~~~~~~~~~~~~~~~~~
Post-Transient Simulation Summary
~~~~~~~~~~~~~~~~~~~~~~~~~~~~~~~~~
   -   To further speed up simulation, consider
          add ++aps on command line
~~~~~~~~~~~~~~~~~~~~~~~~~~~~~~~~~


During simulation, the CPU load for active processors is :
        Spectre  0 (86.7 %)      1 (51.1 %)      2 (65.9 %)      3 (26.1 %)
        Other   
Initial condition solution time: CPU = 506 us, elapsed = 506.878 us.
Intrinsic tran analysis time:    CPU = 12.333 ms, elapsed = 28.0051 ms.
Total time required for tran analysis `DifTempo-001_DifTempo': CPU = 13.908 ms, elapsed = 29.5811 ms.
Time accumulated: CPU = 283.714 ms, elapsed = 497.894 ms.
Peak resident memory used = 64.4 Mbytes.


Notice from spectre during task `MDLControl'.
    26 notices suppressed.


****************************************************************
Transient Analysis `DifTempo-002_DifTempo': time = (0 s -> 3 ns)
****************************************************************
DC simulation time: CPU = 456 us, elapsed = 458.002 us.

Notice from spectre during transient analysis `DifTempo-002_DifTempo', during task `MDLControl'.
    No outputs were found. Loosening output filter criterion to `allpub'.


Opening the PSF file NAND.raw/DifTempo-002_DifTempo.tran.tran ...
Important parameter values:
    start = 0 s
    outputstart = 0 s
    stop = 3 ns
    step = 3 ps
    maxstep = 60 ps
    ic = all
    useprevic = no
    skipdc = no
    reltol = 1e-03
    abstol(V) = 1 uV
    abstol(I) = 1 pA
    temp = 27 C
    tnom = 27 C
    tempeffects = all
    errpreset = moderate
    method = traponly
    lteratio = 3.5
    relref = sigglobal
    cmin = 0 F
    gmin = 1 pS


Output and IC/nodeset summary:
                 save   3       (current)
                 save   6       (voltage)

........9........8........7........6.....

Notice from spectre at time = 1.41945 ns during transient analysis `DifTempo-002_DifTempo', during task `MDLControl'.
    Found trapezoidal ringing on node Vd:p.

........9........8........7........6.......

Notice from spectre at time = 1.47945 ns during transient analysis `DifTempo-002_DifTempo', during task `MDLControl'.
    Found trapezoidal ringing on node Vd:p.

........9........8........7........6........

Notice from spectre at time = 1.53945 ns during transient analysis `DifTempo-002_DifTempo', during task `MDLControl'.
    Found trapezoidal ringing on node Vd:p.

........9........8........7........6........5.

Notice from spectre at time = 1.59945 ns during transient analysis `DifTempo-002_DifTempo', during task `MDLControl'.
    Found trapezoidal ringing on node Vd:p.

........9........8........7........6........5...

Notice from spectre at time = 1.65945 ns during transient analysis `DifTempo-002_DifTempo', during task `MDLControl'.
    Found trapezoidal ringing on node Vd:p.
        Further occurrences of this notice will be suppressed.

........9........8........7........6........5........4........3........2........1........0
Number of accepted tran steps =             81

Notice from spectre during transient analysis `DifTempo-002_DifTempo', during task `MDLControl'.
    Trapezoidal ringing is detected during tran analysis.
        Please use method=trap for better results and performance.


Maximum value achieved for any signal of each quantity: 
V: V(X1.M_i_3__m0_x2__m1:sbnode) = 1 V
I: I(Vd:p) = 68.36 uA
If your circuit contains signals of the same quantity that are vastly different in size (such as high voltage circuitry combined with low voltage control circuitry), you should consider specifying global option `bin_relref=yes'.

~~~~~~~~~~~~~~~~~~~~~~~~~~~~~~~~~
Post-Transient Simulation Summary
~~~~~~~~~~~~~~~~~~~~~~~~~~~~~~~~~
   -   To further speed up simulation, consider
          add ++aps on command line
~~~~~~~~~~~~~~~~~~~~~~~~~~~~~~~~~


During simulation, the CPU load for active processors is :
        Spectre  0 (80.0 %)      1 (50.0 %)      2 (58.5 %)      3 (27.3 %)
        Other   
Initial condition solution time: CPU = 496 us, elapsed = 498.056 us.
Intrinsic tran analysis time:    CPU = 12.913 ms, elapsed = 28.6841 ms.
Total time required for tran analysis `DifTempo-002_DifTempo': CPU = 14.465 ms, elapsed = 30.236 ms.
Time accumulated: CPU = 304.69 ms, elapsed = 581.919 ms.
Peak resident memory used = 64.4 Mbytes.


Notice from spectre during task `MDLControl'.
    23 notices suppressed.


****************************************************************
Transient Analysis `DifTempo-003_DifTempo': time = (0 s -> 3 ns)
****************************************************************
DC simulation time: CPU = 449 us, elapsed = 449.896 us.

Notice from spectre during transient analysis `DifTempo-003_DifTempo', during task `MDLControl'.
    No outputs were found. Loosening output filter criterion to `allpub'.


Opening the PSF file NAND.raw/DifTempo-003_DifTempo.tran.tran ...
Important parameter values:
    start = 0 s
    outputstart = 0 s
    stop = 3 ns
    step = 3 ps
    maxstep = 60 ps
    ic = all
    useprevic = no
    skipdc = no
    reltol = 1e-03
    abstol(V) = 1 uV
    abstol(I) = 1 pA
    temp = 27 C
    tnom = 27 C
    tempeffects = all
    errpreset = moderate
    method = traponly
    lteratio = 3.5
    relref = sigglobal
    cmin = 0 F
    gmin = 1 pS


Output and IC/nodeset summary:
                 save   3       (current)
                 save   6       (voltage)

........9........8........7........6........5.

Notice from spectre at time = 1.60313 ns during transient analysis `DifTempo-003_DifTempo', during task `MDLControl'.
    Found trapezoidal ringing on node Vd:p.

........9........8........7........6........5...

Notice from spectre at time = 1.66313 ns during transient analysis `DifTempo-003_DifTempo', during task `MDLControl'.
    Found trapezoidal ringing on node Vd:p.

........9........8........7........6........5.....

Notice from spectre at time = 1.72313 ns during transient analysis `DifTempo-003_DifTempo', during task `MDLControl'.
    Found trapezoidal ringing on node Vd:p.

........9........8........7........6........5.......

Notice from spectre at time = 1.78313 ns during transient analysis `DifTempo-003_DifTempo', during task `MDLControl'.
    Found trapezoidal ringing on node Vd:p.

........9........8........7........6........5........

Notice from spectre at time = 1.84313 ns during transient analysis `DifTempo-003_DifTempo', during task `MDLControl'.
    Found trapezoidal ringing on node Vd:p.
        Further occurrences of this notice will be suppressed.

........9........8........7........6........5........4........3........2........1........0
Number of accepted tran steps =             81

Notice from spectre during transient analysis `DifTempo-003_DifTempo', during task `MDLControl'.
    Trapezoidal ringing is detected during tran analysis.
        Please use method=trap for better results and performance.


Maximum value achieved for any signal of each quantity: 
V: V(X1.M_i_3__m0_x2__m1:sbnode) = 1 V
I: I(Vd:p) = 41.84 uA
If your circuit contains signals of the same quantity that are vastly different in size (such as high voltage circuitry combined with low voltage control circuitry), you should consider specifying global option `bin_relref=yes'.

~~~~~~~~~~~~~~~~~~~~~~~~~~~~~~~~~
Post-Transient Simulation Summary
~~~~~~~~~~~~~~~~~~~~~~~~~~~~~~~~~
   -   To further speed up simulation, consider
          add ++aps on command line
~~~~~~~~~~~~~~~~~~~~~~~~~~~~~~~~~


During simulation, the CPU load for active processors is :
        Spectre  0 (79.4 %)      1 (46.0 %)      2 (55.7 %)      3 (25.0 %)
        Other   
Initial condition solution time: CPU = 498 us, elapsed = 504.017 us.
Intrinsic tran analysis time:    CPU = 13.396 ms, elapsed = 29.1839 ms.
Total time required for tran analysis `DifTempo-003_DifTempo': CPU = 15.054 ms, elapsed = 30.962 ms.
Time accumulated: CPU = 326.5 ms, elapsed = 666.318 ms.
Peak resident memory used = 64.4 Mbytes.


Notice from spectre during task `MDLControl'.
    20 notices suppressed.


****************************************************************
Transient Analysis `DifTempo-004_DifTempo': time = (0 s -> 3 ns)
****************************************************************
DC simulation time: CPU = 472 us, elapsed = 472.069 us.

Notice from spectre during transient analysis `DifTempo-004_DifTempo', during task `MDLControl'.
    No outputs were found. Loosening output filter criterion to `allpub'.


Opening the PSF file NAND.raw/DifTempo-004_DifTempo.tran.tran ...
Important parameter values:
    start = 0 s
    outputstart = 0 s
    stop = 3 ns
    step = 3 ps
    maxstep = 60 ps
    ic = all
    useprevic = no
    skipdc = no
    reltol = 1e-03
    abstol(V) = 1 uV
    abstol(I) = 1 pA
    temp = 27 C
    tnom = 27 C
    tempeffects = all
    errpreset = moderate
    method = traponly
    lteratio = 3.5
    relref = sigglobal
    cmin = 0 F
    gmin = 1 pS


Output and IC/nodeset summary:
                 save   3       (current)
                 save   6       (voltage)

........9........8........7........6........5........4........3

Notice from spectre at time = 2.15905 ns during transient analysis `DifTempo-004_DifTempo', during task `MDLControl'.
    Found trapezoidal ringing on node Vd:p.

........9........8........7........6........5........4........3..

Notice from spectre at time = 2.21905 ns during transient analysis `DifTempo-004_DifTempo', during task `MDLControl'.
    Found trapezoidal ringing on node Vd:p.

........9........8........7........6........5........4........3....

Notice from spectre at time = 2.27905 ns during transient analysis `DifTempo-004_DifTempo', during task `MDLControl'.
    Found trapezoidal ringing on node Vd:p.

........9........8........7........6........5........4........3.....

Notice from spectre at time = 2.33905 ns during transient analysis `DifTempo-004_DifTempo', during task `MDLControl'.
    Found trapezoidal ringing on node Vd:p.

........9........8........7........6........5........4........3.......

Notice from spectre at time = 2.39905 ns during transient analysis `DifTempo-004_DifTempo', during task `MDLControl'.
    Found trapezoidal ringing on node Vd:p.
        Further occurrences of this notice will be suppressed.

........9........8........7........6........5........4........3........2........1........0
Number of accepted tran steps =             75

Notice from spectre during transient analysis `DifTempo-004_DifTempo', during task `MDLControl'.
    Trapezoidal ringing is detected during tran analysis.
        Please use method=trap for better results and performance.


Maximum value achieved for any signal of each quantity: 
V: V(out) = 1 V
I: I(Vd:p) = 25.18 uA
If your circuit contains signals of the same quantity that are vastly different in size (such as high voltage circuitry combined with low voltage control circuitry), you should consider specifying global option `bin_relref=yes'.

~~~~~~~~~~~~~~~~~~~~~~~~~~~~~~~~~
Post-Transient Simulation Summary
~~~~~~~~~~~~~~~~~~~~~~~~~~~~~~~~~
   -   To further speed up simulation, consider
          add ++aps on command line
~~~~~~~~~~~~~~~~~~~~~~~~~~~~~~~~~


During simulation, the CPU load for active processors is :
        Spectre  0 (80.6 %)      1 (45.7 %)      2 (54.3 %)      3 (23.9 %)
        Other   
Initial condition solution time: CPU = 523 us, elapsed = 530.005 us.
Intrinsic tran analysis time:    CPU = 13.62 ms, elapsed = 29.1688 ms.
Total time required for tran analysis `DifTempo-004_DifTempo': CPU = 15.288 ms, elapsed = 30.9629 ms.
Time accumulated: CPU = 348.622 ms, elapsed = 749.728 ms.
Peak resident memory used = 64.4 Mbytes.


Notice from spectre during task `MDLControl'.
    11 notices suppressed.


****************************************************************
Transient Analysis `DifTempo-005_DifTempo': time = (0 s -> 3 ns)
****************************************************************
DC simulation time: CPU = 512 us, elapsed = 512.838 us.

Notice from spectre during transient analysis `DifTempo-005_DifTempo', during task `MDLControl'.
    No outputs were found. Loosening output filter criterion to `allpub'.


Opening the PSF file NAND.raw/DifTempo-005_DifTempo.tran.tran ...
Important parameter values:
    start = 0 s
    outputstart = 0 s
    stop = 3 ns
    step = 3 ps
    maxstep = 60 ps
    ic = all
    useprevic = no
    skipdc = no
    reltol = 1e-03
    abstol(V) = 1 uV
    abstol(I) = 1 pA
    temp = 27 C
    tnom = 27 C
    tempeffects = all
    errpreset = moderate
    method = traponly
    lteratio = 3.5
    relref = sigglobal
    cmin = 0 F
    gmin = 1 pS


Output and IC/nodeset summary:
                 save   3       (current)
                 save   6       (voltage)

........9........8........7........6........5........4.......

Notice from spectre at time = 2.0794 ns during transient analysis `DifTempo-005_DifTempo', during task `MDLControl'.
    Found trapezoidal ringing on node Va:p.

........9........8........7........6........5........4........

Notice from spectre at time = 2.1275 ns during transient analysis `DifTempo-005_DifTempo', during task `MDLControl'.
    Found trapezoidal ringing on node Va:p.

........9........8........7........6........5........4........3........2.....

Notice from spectre at time = 2.6155 ns during transient analysis `DifTempo-005_DifTempo', during task `MDLControl'.
    Found trapezoidal ringing on node Vd:p.

........9........8........7........6........5........4........3........2......

Notice from spectre at time = 2.6755 ns during transient analysis `DifTempo-005_DifTempo', during task `MDLControl'.
    Found trapezoidal ringing on node Vd:p.

........9........8........7........6........5........4........3........2........

Notice from spectre at time = 2.7355 ns during transient analysis `DifTempo-005_DifTempo', during task `MDLControl'.
    Found trapezoidal ringing on node Vd:p.
        Further occurrences of this notice will be suppressed.

........9........8........7........6........5........4........3........2........1........0
Number of accepted tran steps =             72

Notice from spectre during transient analysis `DifTempo-005_DifTempo', during task `MDLControl'.
    Trapezoidal ringing is detected during tran analysis.
        Please use method=trap for better results and performance.


Maximum value achieved for any signal of each quantity: 
V: V(out) = 1 V
I: I(Vd:p) = 15.1 uA
If your circuit contains signals of the same quantity that are vastly different in size (such as high voltage circuitry combined with low voltage control circuitry), you should consider specifying global option `bin_relref=yes'.

~~~~~~~~~~~~~~~~~~~~~~~~~~~~~~~~~
Post-Transient Simulation Summary
~~~~~~~~~~~~~~~~~~~~~~~~~~~~~~~~~
   -   To further speed up simulation, consider
          add ++aps on command line
~~~~~~~~~~~~~~~~~~~~~~~~~~~~~~~~~


During simulation, the CPU load for active processors is :
        Spectre  0 (76.8 %)      1 (44.4 %)      2 (49.4 %)      3 (23.2 %)
        Other   
Initial condition solution time: CPU = 552 us, elapsed = 567.198 us.
Intrinsic tran analysis time:    CPU = 13.295 ms, elapsed = 53.9901 ms.
Total time required for tran analysis `DifTempo-005_DifTempo': CPU = 15.004 ms, elapsed = 55.8231 ms.
Time accumulated: CPU = 370.525 ms, elapsed = 858.106 ms.
Peak resident memory used = 64.4 Mbytes.


Notice from spectre during task `MDLControl'.
    5 notices suppressed.


****************************************************************
Transient Analysis `DifTempo-006_DifTempo': time = (0 s -> 3 ns)
****************************************************************
DC simulation time: CPU = 467 us, elapsed = 468.016 us.

Notice from spectre during transient analysis `DifTempo-006_DifTempo', during task `MDLControl'.
    No outputs were found. Loosening output filter criterion to `allpub'.


Opening the PSF file NAND.raw/DifTempo-006_DifTempo.tran.tran ...
Important parameter values:
    start = 0 s
    outputstart = 0 s
    stop = 3 ns
    step = 3 ps
    maxstep = 60 ps
    ic = all
    useprevic = no
    skipdc = no
    reltol = 1e-03
    abstol(V) = 1 uV
    abstol(I) = 1 pA
    temp = 27 C
    tnom = 27 C
    tempeffects = all
    errpreset = moderate
    method = traponly
    lteratio = 3.5
    relref = sigglobal
    cmin = 0 F
    gmin = 1 pS


Output and IC/nodeset summary:
                 save   3       (current)
                 save   6       (voltage)

........9........8........7.......

Notice from spectre at time = 1.18226 ns during transient analysis `DifTempo-006_DifTempo', during task `MDLControl'.
    Found trapezoidal ringing on node Vb:p.

........9........8........7........

Notice from spectre at time = 1.24226 ns during transient analysis `DifTempo-006_DifTempo', during task `MDLControl'.
    Found trapezoidal ringing on node Vb:p.

........9........8........7........6.

Notice from spectre at time = 1.30226 ns during transient analysis `DifTempo-006_DifTempo', during task `MDLControl'.
    Found trapezoidal ringing on node Vb:p.

........9........8........7........6...

Notice from spectre at time = 1.36226 ns during transient analysis `DifTempo-006_DifTempo', during task `MDLControl'.
    Found trapezoidal ringing on node Vb:p.

........9........8........7........6.....

Notice from spectre at time = 1.42226 ns during transient analysis `DifTempo-006_DifTempo', during task `MDLControl'.
    Found trapezoidal ringing on node Vb:p.
        Further occurrences of this notice will be suppressed.

........9........8........7........6........5........4........3........2........1........0
Number of accepted tran steps =             64

Notice from spectre during transient analysis `DifTempo-006_DifTempo', during task `MDLControl'.
    Trapezoidal ringing is detected during tran analysis.
        Please use method=trap for better results and performance.


Maximum value achieved for any signal of each quantity: 
V: V(X1.M_i_3__m0_x2__m1:sbnode) = 1 V
I: I(Vd:p) = 8.947 uA
If your circuit contains signals of the same quantity that are vastly different in size (such as high voltage circuitry combined with low voltage control circuitry), you should consider specifying global option `bin_relref=yes'.

~~~~~~~~~~~~~~~~~~~~~~~~~~~~~~~~~
Post-Transient Simulation Summary
~~~~~~~~~~~~~~~~~~~~~~~~~~~~~~~~~
   -   To further speed up simulation, consider
          add ++aps on command line
~~~~~~~~~~~~~~~~~~~~~~~~~~~~~~~~~


During simulation, the CPU load for active processors is :
        Spectre  0 (73.3 %)      1 (42.7 %)      2 (49.4 %)      3 (22.2 %)
        Other   
Initial condition solution time: CPU = 510 us, elapsed = 517.13 us.
Intrinsic tran analysis time:    CPU = 10.882 ms, elapsed = 26.1059 ms.
Total time required for tran analysis `DifTempo-006_DifTempo': CPU = 12.501 ms, elapsed = 27.843 ms.
Time accumulated: CPU = 389.827 ms, elapsed = 938.601 ms.
Peak resident memory used = 64.4 Mbytes.


Notice from spectre during task `MDLControl'.
    7 notices suppressed.


****************************************************************
Transient Analysis `DifTempo-007_DifTempo': time = (0 s -> 3 ns)
****************************************************************
DC simulation time: CPU = 469 us, elapsed = 469.923 us.

Notice from spectre during transient analysis `DifTempo-007_DifTempo', during task `MDLControl'.
    No outputs were found. Loosening output filter criterion to `allpub'.


Opening the PSF file NAND.raw/DifTempo-007_DifTempo.tran.tran ...
Important parameter values:
    start = 0 s
    outputstart = 0 s
    stop = 3 ns
    step = 3 ps
    maxstep = 60 ps
    ic = all
    useprevic = no
    skipdc = no
    reltol = 1e-03
    abstol(V) = 1 uV
    abstol(I) = 1 pA
    temp = 27 C
    tnom = 27 C
    tempeffects = all
    errpreset = moderate
    method = traponly
    lteratio = 3.5
    relref = sigglobal
    cmin = 0 F
    gmin = 1 pS


Output and IC/nodeset summary:
                 save   3       (current)
                 save   6       (voltage)

........9........8........7.......

Notice from spectre at time = 1.19299 ns during transient analysis `DifTempo-007_DifTempo', during task `MDLControl'.
    Found trapezoidal ringing on node Vd:p.

........9........8........7........6

Notice from spectre at time = 1.25299 ns during transient analysis `DifTempo-007_DifTempo', during task `MDLControl'.
    Found trapezoidal ringing on node Vd:p.

........9........8........7........6..

Notice from spectre at time = 1.31299 ns during transient analysis `DifTempo-007_DifTempo', during task `MDLControl'.
    Found trapezoidal ringing on node Vd:p.

........9........8........7........6...

Notice from spectre at time = 1.37299 ns during transient analysis `DifTempo-007_DifTempo', during task `MDLControl'.
    Found trapezoidal ringing on node Vd:p.

........9........8........7........6.....

Notice from spectre at time = 1.43299 ns during transient analysis `DifTempo-007_DifTempo', during task `MDLControl'.
    Found trapezoidal ringing on node Vd:p.
        Further occurrences of this notice will be suppressed.

........9........8........7........6........5........4........3........2........1........0
Number of accepted tran steps =             87

Notice from spectre during transient analysis `DifTempo-007_DifTempo', during task `MDLControl'.
    Trapezoidal ringing is detected during tran analysis.
        Please use method=trap for better results and performance.


Maximum value achieved for any signal of each quantity: 
V: V(X1.M_i_2__m0_x2__m0:sbnode) = 1 V
I: I(Vd:p) = 161.8 uA
If your circuit contains signals of the same quantity that are vastly different in size (such as high voltage circuitry combined with low voltage control circuitry), you should consider specifying global option `bin_relref=yes'.

~~~~~~~~~~~~~~~~~~~~~~~~~~~~~~~~~
Post-Transient Simulation Summary
~~~~~~~~~~~~~~~~~~~~~~~~~~~~~~~~~
   -   To further speed up simulation, consider
          add ++aps on command line
~~~~~~~~~~~~~~~~~~~~~~~~~~~~~~~~~


During simulation, the CPU load for active processors is :
        Spectre  0 (68.6 %)      1 (41.6 %)      2 (55.4 %)      3 (21.6 %)
        Other   
Initial condition solution time: CPU = 519 us, elapsed = 524.998 us.
Intrinsic tran analysis time:    CPU = 13.219 ms, elapsed = 28.5079 ms.
Total time required for tran analysis `DifTempo-007_DifTempo': CPU = 14.867 ms, elapsed = 30.2751 ms.
Time accumulated: CPU = 413.273 ms, elapsed = 1.05809 s.
Peak resident memory used = 64.4 Mbytes.


Notice from spectre during task `MDLControl'.
    27 notices suppressed.


****************************************************************
Transient Analysis `DifTempo-008_DifTempo': time = (0 s -> 3 ns)
****************************************************************
DC simulation time: CPU = 473 us, elapsed = 474.93 us.

Notice from spectre during transient analysis `DifTempo-008_DifTempo', during task `MDLControl'.
    No outputs were found. Loosening output filter criterion to `allpub'.


Opening the PSF file NAND.raw/DifTempo-008_DifTempo.tran.tran ...
Important parameter values:
    start = 0 s
    outputstart = 0 s
    stop = 3 ns
    step = 3 ps
    maxstep = 60 ps
    ic = all
    useprevic = no
    skipdc = no
    reltol = 1e-03
    abstol(V) = 1 uV
    abstol(I) = 1 pA
    temp = 27 C
    tnom = 27 C
    tempeffects = all
    errpreset = moderate
    method = traponly
    lteratio = 3.5
    relref = sigglobal
    cmin = 0 F
    gmin = 1 pS


Output and IC/nodeset summary:
                 save   3       (current)
                 save   6       (voltage)

........9........8........7........

Notice from spectre at time = 1.19325 ns during transient analysis `DifTempo-008_DifTempo', during task `MDLControl'.
    Found trapezoidal ringing on node Va:p.

........9........8........7........6

Notice from spectre at time = 1.25325 ns during transient analysis `DifTempo-008_DifTempo', during task `MDLControl'.
    Found trapezoidal ringing on node Va:p.

........9........8........7........6..

Notice from spectre at time = 1.31325 ns during transient analysis `DifTempo-008_DifTempo', during task `MDLControl'.
    Found trapezoidal ringing on node Va:p.

........9........8........7........6...

Notice from spectre at time = 1.37325 ns during transient analysis `DifTempo-008_DifTempo', during task `MDLControl'.
    Found trapezoidal ringing on node Va:p.

........9........8........7........6.....

Notice from spectre at time = 1.43325 ns during transient analysis `DifTempo-008_DifTempo', during task `MDLControl'.
    Found trapezoidal ringing on node Va:p.
        Further occurrences of this notice will be suppressed.

........9........8........7........6........5........4........3........2........1........0
Number of accepted tran steps =             82

Notice from spectre during transient analysis `DifTempo-008_DifTempo', during task `MDLControl'.
    Trapezoidal ringing is detected during tran analysis.
        Please use method=trap for better results and performance.


Maximum value achieved for any signal of each quantity: 
V: V(X1.M_i_3__m0_x2__m1:sbnode) = 1 V
I: I(Vd:p) = 106.3 uA
If your circuit contains signals of the same quantity that are vastly different in size (such as high voltage circuitry combined with low voltage control circuitry), you should consider specifying global option `bin_relref=yes'.

~~~~~~~~~~~~~~~~~~~~~~~~~~~~~~~~~
Post-Transient Simulation Summary
~~~~~~~~~~~~~~~~~~~~~~~~~~~~~~~~~
   -   To further speed up simulation, consider
          add ++aps on command line
~~~~~~~~~~~~~~~~~~~~~~~~~~~~~~~~~


During simulation, the CPU load for active processors is :
        Spectre  0 (65.5 %)      1 (40.5 %)      2 (55.0 %)      3 (21.8 %)
        Other   
Initial condition solution time: CPU = 517 us, elapsed = 523.806 us.
Intrinsic tran analysis time:    CPU = 13.288 ms, elapsed = 28.1889 ms.
Total time required for tran analysis `DifTempo-008_DifTempo': CPU = 14.916 ms, elapsed = 29.9342 ms.
Time accumulated: CPU = 435.204 ms, elapsed = 1.14118 s.
Peak resident memory used = 64.5 Mbytes.


Notice from spectre during task `MDLControl'.
    27 notices suppressed.


****************************************************************
Transient Analysis `DifTempo-009_DifTempo': time = (0 s -> 3 ns)
****************************************************************
DC simulation time: CPU = 517 us, elapsed = 516.891 us.

Notice from spectre during transient analysis `DifTempo-009_DifTempo', during task `MDLControl'.
    No outputs were found. Loosening output filter criterion to `allpub'.


Opening the PSF file NAND.raw/DifTempo-009_DifTempo.tran.tran ...
Important parameter values:
    start = 0 s
    outputstart = 0 s
    stop = 3 ns
    step = 3 ps
    maxstep = 60 ps
    ic = all
    useprevic = no
    skipdc = no
    reltol = 1e-03
    abstol(V) = 1 uV
    abstol(I) = 1 pA
    temp = 27 C
    tnom = 27 C
    tempeffects = all
    errpreset = moderate
    method = traponly
    lteratio = 3.5
    relref = sigglobal
    cmin = 0 F
    gmin = 1 pS


Output and IC/nodeset summary:
                 save   3       (current)
                 save   6       (voltage)

........9........8........7........6.......

Notice from spectre at time = 1.50218 ns during transient analysis `DifTempo-009_DifTempo', during task `MDLControl'.
    Found trapezoidal ringing on node Vd:p.

........9........8........7........6........5

Notice from spectre at time = 1.56218 ns during transient analysis `DifTempo-009_DifTempo', during task `MDLControl'.
    Found trapezoidal ringing on node Vd:p.

........9........8........7........6........5..

Notice from spectre at time = 1.62218 ns during transient analysis `DifTempo-009_DifTempo', during task `MDLControl'.
    Found trapezoidal ringing on node Vd:p.

........9........8........7........6........5....

Notice from spectre at time = 1.68218 ns during transient analysis `DifTempo-009_DifTempo', during task `MDLControl'.
    Found trapezoidal ringing on node Vd:p.

........9........8........7........6........5.....

Notice from spectre at time = 1.74218 ns during transient analysis `DifTempo-009_DifTempo', during task `MDLControl'.
    Found trapezoidal ringing on node Vd:p.
        Further occurrences of this notice will be suppressed.

........9........8........7........6........5........4........3........2........1........0
Number of accepted tran steps =             81

Notice from spectre during transient analysis `DifTempo-009_DifTempo', during task `MDLControl'.
    Trapezoidal ringing is detected during tran analysis.
        Please use method=trap for better results and performance.


Maximum value achieved for any signal of each quantity: 
V: V(X1.M_i_3__m0_x2__m1:sbnode) = 1 V
I: I(Vd:p) = 72.07 uA
If your circuit contains signals of the same quantity that are vastly different in size (such as high voltage circuitry combined with low voltage control circuitry), you should consider specifying global option `bin_relref=yes'.

~~~~~~~~~~~~~~~~~~~~~~~~~~~~~~~~~
Post-Transient Simulation Summary
~~~~~~~~~~~~~~~~~~~~~~~~~~~~~~~~~
   -   To further speed up simulation, consider
          add ++aps on command line
~~~~~~~~~~~~~~~~~~~~~~~~~~~~~~~~~


During simulation, the CPU load for active processors is :
        Spectre  0 (63.0 %)      1 (42.5 %)      2 (53.4 %)      3 (22.0 %)
        Other   
Initial condition solution time: CPU = 558 us, elapsed = 558.853 us.
Intrinsic tran analysis time:    CPU = 12.744 ms, elapsed = 28.0881 ms.
Total time required for tran analysis `DifTempo-009_DifTempo': CPU = 14.407 ms, elapsed = 29.7501 ms.
Time accumulated: CPU = 456.755 ms, elapsed = 1.22437 s.
Peak resident memory used = 64.5 Mbytes.


Notice from spectre during task `MDLControl'.
    21 notices suppressed.


****************************************************************
Transient Analysis `DifTempo-010_DifTempo': time = (0 s -> 3 ns)
****************************************************************
DC simulation time: CPU = 476 us, elapsed = 476.122 us.

Notice from spectre during transient analysis `DifTempo-010_DifTempo', during task `MDLControl'.
    No outputs were found. Loosening output filter criterion to `allpub'.


Opening the PSF file NAND.raw/DifTempo-010_DifTempo.tran.tran ...
Important parameter values:
    start = 0 s
    outputstart = 0 s
    stop = 3 ns
    step = 3 ps
    maxstep = 60 ps
    ic = all
    useprevic = no
    skipdc = no
    reltol = 1e-03
    abstol(V) = 1 uV
    abstol(I) = 1 pA
    temp = 27 C
    tnom = 27 C
    tempeffects = all
    errpreset = moderate
    method = traponly
    lteratio = 3.5
    relref = sigglobal
    cmin = 0 F
    gmin = 1 pS


Output and IC/nodeset summary:
                 save   3       (current)
                 save   6       (voltage)

........9........8........7........6........5

Notice from spectre at time = 1.56805 ns during transient analysis `DifTempo-010_DifTempo', during task `MDLControl'.
    Found trapezoidal ringing on node Vb:p.

........9........8........7........6........5..

Notice from spectre at time = 1.62805 ns during transient analysis `DifTempo-010_DifTempo', during task `MDLControl'.
    Found trapezoidal ringing on node Vb:p.

........9........8........7........6........5....

Notice from spectre at time = 1.68805 ns during transient analysis `DifTempo-010_DifTempo', during task `MDLControl'.
    Found trapezoidal ringing on node Vb:p.

........9........8........7........6........5......

Notice from spectre at time = 1.74805 ns during transient analysis `DifTempo-010_DifTempo', during task `MDLControl'.
    Found trapezoidal ringing on node Vb:p.

........9........8........7........6........5.......

Notice from spectre at time = 1.80805 ns during transient analysis `DifTempo-010_DifTempo', during task `MDLControl'.
    Found trapezoidal ringing on node Vb:p.
        Further occurrences of this notice will be suppressed.

........9........8........7........6........5........4........3........2........1........0
Number of accepted tran steps =             81

Notice from spectre during transient analysis `DifTempo-010_DifTempo', during task `MDLControl'.
    Trapezoidal ringing is detected during tran analysis.
        Please use method=trap for better results and performance.


Maximum value achieved for any signal of each quantity: 
V: V(X1.M_i_3__m0_x2__m1:sbnode) = 1 V
I: I(Vd:p) = 44.99 uA
If your circuit contains signals of the same quantity that are vastly different in size (such as high voltage circuitry combined with low voltage control circuitry), you should consider specifying global option `bin_relref=yes'.

~~~~~~~~~~~~~~~~~~~~~~~~~~~~~~~~~
Post-Transient Simulation Summary
~~~~~~~~~~~~~~~~~~~~~~~~~~~~~~~~~
   -   To further speed up simulation, consider
          add ++aps on command line
~~~~~~~~~~~~~~~~~~~~~~~~~~~~~~~~~


During simulation, the CPU load for active processors is :
        Spectre  0 (63.0 %)      1 (43.3 %)      2 (56.3 %)      3 (21.4 %)
        Other   
Initial condition solution time: CPU = 520 us, elapsed = 525.951 us.
Intrinsic tran analysis time:    CPU = 13.364 ms, elapsed = 28.9421 ms.
Total time required for tran analysis `DifTempo-010_DifTempo': CPU = 14.989 ms, elapsed = 30.6981 ms.
Time accumulated: CPU = 478.731 ms, elapsed = 1.30855 s.
Peak resident memory used = 64.5 Mbytes.


Notice from spectre during task `MDLControl'.
    20 notices suppressed.


****************************************************************
Transient Analysis `DifTempo-011_DifTempo': time = (0 s -> 3 ns)
****************************************************************
DC simulation time: CPU = 481 us, elapsed = 481.129 us.

Notice from spectre during transient analysis `DifTempo-011_DifTempo', during task `MDLControl'.
    No outputs were found. Loosening output filter criterion to `allpub'.


Opening the PSF file NAND.raw/DifTempo-011_DifTempo.tran.tran ...
Important parameter values:
    start = 0 s
    outputstart = 0 s
    stop = 3 ns
    step = 3 ps
    maxstep = 60 ps
    ic = all
    useprevic = no
    skipdc = no
    reltol = 1e-03
    abstol(V) = 1 uV
    abstol(I) = 1 pA
    temp = 27 C
    tnom = 27 C
    tempeffects = all
    errpreset = moderate
    method = traponly
    lteratio = 3.5
    relref = sigglobal
    cmin = 0 F
    gmin = 1 pS


Output and IC/nodeset summary:
                 save   3       (current)
                 save   6       (voltage)

........9........8........7........6........5........4........3

Notice from spectre at time = 2.15429 ns during transient analysis `DifTempo-011_DifTempo', during task `MDLControl'.
    Found trapezoidal ringing on node Vd:p.

........9........8........7........6........5........4........3..

Notice from spectre at time = 2.21429 ns during transient analysis `DifTempo-011_DifTempo', during task `MDLControl'.
    Found trapezoidal ringing on node Vd:p.

........9........8........7........6........5........4........3...

Notice from spectre at time = 2.27429 ns during transient analysis `DifTempo-011_DifTempo', during task `MDLControl'.
    Found trapezoidal ringing on node Vd:p.

........9........8........7........6........5........4........3.....

Notice from spectre at time = 2.33429 ns during transient analysis `DifTempo-011_DifTempo', during task `MDLControl'.
    Found trapezoidal ringing on node Vd:p.

........9........8........7........6........5........4........3.......

Notice from spectre at time = 2.39429 ns during transient analysis `DifTempo-011_DifTempo', during task `MDLControl'.
    Found trapezoidal ringing on node Vd:p.
        Further occurrences of this notice will be suppressed.

........9........8........7........6........5........4........3........2........1........0
Number of accepted tran steps =             75

Notice from spectre during transient analysis `DifTempo-011_DifTempo', during task `MDLControl'.
    Trapezoidal ringing is detected during tran analysis.
        Please use method=trap for better results and performance.


Maximum value achieved for any signal of each quantity: 
V: V(out) = 1 V
I: I(Vd:p) = 27.2 uA
If your circuit contains signals of the same quantity that are vastly different in size (such as high voltage circuitry combined with low voltage control circuitry), you should consider specifying global option `bin_relref=yes'.

~~~~~~~~~~~~~~~~~~~~~~~~~~~~~~~~~
Post-Transient Simulation Summary
~~~~~~~~~~~~~~~~~~~~~~~~~~~~~~~~~
   -   To further speed up simulation, consider
          add ++aps on command line
~~~~~~~~~~~~~~~~~~~~~~~~~~~~~~~~~


During simulation, the CPU load for active processors is :
        Spectre  0 (60.0 %)      1 (42.6 %)      2 (59.0 %)      3 (21.5 %)
        Other   
Initial condition solution time: CPU = 520 us, elapsed = 522.137 us.
Intrinsic tran analysis time:    CPU = 13.086 ms, elapsed = 28.7461 ms.
Total time required for tran analysis `DifTempo-011_DifTempo': CPU = 14.685 ms, elapsed = 30.344 ms.
Time accumulated: CPU = 500.683 ms, elapsed = 1.39206 s.
Peak resident memory used = 64.5 Mbytes.


Notice from spectre during task `MDLControl'.
    11 notices suppressed.


****************************************************************
Transient Analysis `DifTempo-012_DifTempo': time = (0 s -> 3 ns)
****************************************************************
DC simulation time: CPU = 485 us, elapsed = 486.135 us.

Notice from spectre during transient analysis `DifTempo-012_DifTempo', during task `MDLControl'.
    No outputs were found. Loosening output filter criterion to `allpub'.


Opening the PSF file NAND.raw/DifTempo-012_DifTempo.tran.tran ...
Important parameter values:
    start = 0 s
    outputstart = 0 s
    stop = 3 ns
    step = 3 ps
    maxstep = 60 ps
    ic = all
    useprevic = no
    skipdc = no
    reltol = 1e-03
    abstol(V) = 1 uV
    abstol(I) = 1 pA
    temp = 27 C
    tnom = 27 C
    tempeffects = all
    errpreset = moderate
    method = traponly
    lteratio = 3.5
    relref = sigglobal
    cmin = 0 F
    gmin = 1 pS


Output and IC/nodeset summary:
                 save   3       (current)
                 save   6       (voltage)

........9........8........7........6........5........4....

Notice from spectre at time = 2.00879 ns during transient analysis `DifTempo-012_DifTempo', during task `MDLControl'.
    Found trapezoidal ringing on node Vb:p.

........9........8........7........6........5........4......

Notice from spectre at time = 2.06879 ns during transient analysis `DifTempo-012_DifTempo', during task `MDLControl'.
    Found trapezoidal ringing on node Vb:p.

........9........8........7........6........5........4........

Notice from spectre at time = 2.1275 ns during transient analysis `DifTempo-012_DifTempo', during task `MDLControl'.
    Found trapezoidal ringing on node Vb:p.

........9........8........7........6........5........4........3........2.......

Notice from spectre at time = 2.68692 ns during transient analysis `DifTempo-012_DifTempo', during task `MDLControl'.
    Found trapezoidal ringing on node Vd:p.

........9........8........7........6........5........4........3........2........1

Notice from spectre at time = 2.74692 ns during transient analysis `DifTempo-012_DifTempo', during task `MDLControl'.
    Found trapezoidal ringing on node Vd:p.
        Further occurrences of this notice will be suppressed.

........9........8........7........6........5........4........3........2........1........0
Number of accepted tran steps =             71

Notice from spectre during transient analysis `DifTempo-012_DifTempo', during task `MDLControl'.
    Trapezoidal ringing is detected during tran analysis.
        Please use method=trap for better results and performance.


Maximum value achieved for any signal of each quantity: 
V: V(out) = 1 V
I: I(Vd:p) = 16.25 uA
If your circuit contains signals of the same quantity that are vastly different in size (such as high voltage circuitry combined with low voltage control circuitry), you should consider specifying global option `bin_relref=yes'.

~~~~~~~~~~~~~~~~~~~~~~~~~~~~~~~~~
Post-Transient Simulation Summary
~~~~~~~~~~~~~~~~~~~~~~~~~~~~~~~~~
   -   To further speed up simulation, consider
          add ++aps on command line
~~~~~~~~~~~~~~~~~~~~~~~~~~~~~~~~~


During simulation, the CPU load for active processors is :
        Spectre  0 (59.4 %)      1 (42.4 %)      2 (56.3 %)      3 (21.7 %)
        Other   
Initial condition solution time: CPU = 530 us, elapsed = 537.872 us.
Intrinsic tran analysis time:    CPU = 12.821 ms, elapsed = 28.5671 ms.
Total time required for tran analysis `DifTempo-012_DifTempo': CPU = 14.479 ms, elapsed = 30.3462 ms.
Time accumulated: CPU = 522.134 ms, elapsed = 1.4757 s.
Peak resident memory used = 64.5 Mbytes.


Notice from spectre during task `MDLControl'.
    5 notices suppressed.


****************************************************************
Transient Analysis `DifTempo-013_DifTempo': time = (0 s -> 3 ns)
****************************************************************
DC simulation time: CPU = 584 us, elapsed = 584.841 us.

Notice from spectre during transient analysis `DifTempo-013_DifTempo', during task `MDLControl'.
    No outputs were found. Loosening output filter criterion to `allpub'.


Opening the PSF file NAND.raw/DifTempo-013_DifTempo.tran.tran ...
Important parameter values:
    start = 0 s
    outputstart = 0 s
    stop = 3 ns
    step = 3 ps
    maxstep = 60 ps
    ic = all
    useprevic = no
    skipdc = no
    reltol = 1e-03
    abstol(V) = 1 uV
    abstol(I) = 1 pA
    temp = 27 C
    tnom = 27 C
    tempeffects = all
    errpreset = moderate
    method = traponly
    lteratio = 3.5
    relref = sigglobal
    cmin = 0 F
    gmin = 1 pS


Output and IC/nodeset summary:
                 save   3       (current)
                 save   6       (voltage)

........9........8........7.......

Notice from spectre at time = 1.18267 ns during transient analysis `DifTempo-013_DifTempo', during task `MDLControl'.
    Found trapezoidal ringing on node Vb:p.

........9........8........7........

Notice from spectre at time = 1.24267 ns during transient analysis `DifTempo-013_DifTempo', during task `MDLControl'.
    Found trapezoidal ringing on node Vb:p.

........9........8........7........6.

Notice from spectre at time = 1.30267 ns during transient analysis `DifTempo-013_DifTempo', during task `MDLControl'.
    Found trapezoidal ringing on node Vb:p.

........9........8........7........6...

Notice from spectre at time = 1.36267 ns during transient analysis `DifTempo-013_DifTempo', during task `MDLControl'.
    Found trapezoidal ringing on node Vb:p.

........9........8........7........6.....

Notice from spectre at time = 1.42267 ns during transient analysis `DifTempo-013_DifTempo', during task `MDLControl'.
    Found trapezoidal ringing on node Vb:p.
        Further occurrences of this notice will be suppressed.

........9........8........7........6........5........4........3........2........1........0
Number of accepted tran steps =             64

Notice from spectre during transient analysis `DifTempo-013_DifTempo', during task `MDLControl'.
    Trapezoidal ringing is detected during tran analysis.
        Please use method=trap for better results and performance.


Maximum value achieved for any signal of each quantity: 
V: V(X1.M_i_3__m0_x2__m1:sbnode) = 1 V
I: I(Vd:p) = 9.479 uA
If your circuit contains signals of the same quantity that are vastly different in size (such as high voltage circuitry combined with low voltage control circuitry), you should consider specifying global option `bin_relref=yes'.

~~~~~~~~~~~~~~~~~~~~~~~~~~~~~~~~~
Post-Transient Simulation Summary
~~~~~~~~~~~~~~~~~~~~~~~~~~~~~~~~~
   -   To further speed up simulation, consider
          add ++aps on command line
~~~~~~~~~~~~~~~~~~~~~~~~~~~~~~~~~


During simulation, the CPU load for active processors is :
        Spectre  0 (57.6 %)      1 (41.4 %)      2 (55.6 %)      3 (24.5 %)
        Other   
Initial condition solution time: CPU = 646 us, elapsed = 665.188 us.
Intrinsic tran analysis time:    CPU = 11.03 ms, elapsed = 25.6488 ms.
Total time required for tran analysis `DifTempo-013_DifTempo': CPU = 13.044 ms, elapsed = 27.8001 ms.
Time accumulated: CPU = 542.727 ms, elapsed = 1.55632 s.
Peak resident memory used = 64.5 Mbytes.


Notice from spectre during task `MDLControl'.
    6 notices suppressed.


****************************************************************
Transient Analysis `DifTempo-014_DifTempo': time = (0 s -> 3 ns)
****************************************************************
DC simulation time: CPU = 519 us, elapsed = 519.037 us.

Notice from spectre during transient analysis `DifTempo-014_DifTempo', during task `MDLControl'.
    No outputs were found. Loosening output filter criterion to `allpub'.


Opening the PSF file NAND.raw/DifTempo-014_DifTempo.tran.tran ...
Important parameter values:
    start = 0 s
    outputstart = 0 s
    stop = 3 ns
    step = 3 ps
    maxstep = 60 ps
    ic = all
    useprevic = no
    skipdc = no
    reltol = 1e-03
    abstol(V) = 1 uV
    abstol(I) = 1 pA
    temp = 27 C
    tnom = 27 C
    tempeffects = all
    errpreset = moderate
    method = traponly
    lteratio = 3.5
    relref = sigglobal
    cmin = 0 F
    gmin = 1 pS


Output and IC/nodeset summary:
                 save   3       (current)
                 save   6       (voltage)

........9........8........7........

Notice from spectre at time = 1.21739 ns during transient analysis `DifTempo-014_DifTempo', during task `MDLControl'.
    Found trapezoidal ringing on node Va:p.

........9........8........7........6.

Notice from spectre at time = 1.27739 ns during transient analysis `DifTempo-014_DifTempo', during task `MDLControl'.
    Found trapezoidal ringing on node Va:p.

........9........8........7........6..

Notice from spectre at time = 1.33739 ns during transient analysis `DifTempo-014_DifTempo', during task `MDLControl'.
    Found trapezoidal ringing on node Va:p.

........9........8........7........6....

Notice from spectre at time = 1.39739 ns during transient analysis `DifTempo-014_DifTempo', during task `MDLControl'.
    Found trapezoidal ringing on node Va:p.

........9........8........7........6......

Notice from spectre at time = 1.45739 ns during transient analysis `DifTempo-014_DifTempo', during task `MDLControl'.
    Found trapezoidal ringing on node Va:p.
        Further occurrences of this notice will be suppressed.

........9........8........7........6........5........4........3........2........1........0
Number of accepted tran steps =             83

Notice from spectre during transient analysis `DifTempo-014_DifTempo', during task `MDLControl'.
    Trapezoidal ringing is detected during tran analysis.
        Please use method=trap for better results and performance.


Maximum value achieved for any signal of each quantity: 
V: V(X1.M_i_2__m0_x2__m0:sbnode) = 1 V
I: I(Vd:p) = 173.7 uA
If your circuit contains signals of the same quantity that are vastly different in size (such as high voltage circuitry combined with low voltage control circuitry), you should consider specifying global option `bin_relref=yes'.

~~~~~~~~~~~~~~~~~~~~~~~~~~~~~~~~~
Post-Transient Simulation Summary
~~~~~~~~~~~~~~~~~~~~~~~~~~~~~~~~~
   -   To further speed up simulation, consider
          add ++aps on command line
~~~~~~~~~~~~~~~~~~~~~~~~~~~~~~~~~


During simulation, the CPU load for active processors is :
        Spectre  0 (55.2 %)      1 (39.6 %)      2 (53.4 %)      3 (30.1 %)
        Other   
Initial condition solution time: CPU = 590 us, elapsed = 596.046 us.
Intrinsic tran analysis time:    CPU = 12.46 ms, elapsed = 27.596 ms.
Total time required for tran analysis `DifTempo-014_DifTempo': CPU = 14.252 ms, elapsed = 29.511 ms.
Time accumulated: CPU = 566.037 ms, elapsed = 1.67484 s.
Peak resident memory used = 64.5 Mbytes.


Notice from spectre during task `MDLControl'.
    26 notices suppressed.


****************************************************************
Transient Analysis `DifTempo-015_DifTempo': time = (0 s -> 3 ns)
****************************************************************
DC simulation time: CPU = 510 us, elapsed = 510.931 us.

Notice from spectre during transient analysis `DifTempo-015_DifTempo', during task `MDLControl'.
    No outputs were found. Loosening output filter criterion to `allpub'.


Opening the PSF file NAND.raw/DifTempo-015_DifTempo.tran.tran ...
Important parameter values:
    start = 0 s
    outputstart = 0 s
    stop = 3 ns
    step = 3 ps
    maxstep = 60 ps
    ic = all
    useprevic = no
    skipdc = no
    reltol = 1e-03
    abstol(V) = 1 uV
    abstol(I) = 1 pA
    temp = 27 C
    tnom = 27 C
    tempeffects = all
    errpreset = moderate
    method = traponly
    lteratio = 3.5
    relref = sigglobal
    cmin = 0 F
    gmin = 1 pS


Output and IC/nodeset summary:
                 save   3       (current)
                 save   6       (voltage)

........9........8........7........6

Notice from spectre at time = 1.2499 ns during transient analysis `DifTempo-015_DifTempo', during task `MDLControl'.
    Found trapezoidal ringing on node Va:p.

........9........8........7........6.

Notice from spectre at time = 1.3099 ns during transient analysis `DifTempo-015_DifTempo', during task `MDLControl'.
    Found trapezoidal ringing on node Va:p.

........9........8........7........6...

Notice from spectre at time = 1.3699 ns during transient analysis `DifTempo-015_DifTempo', during task `MDLControl'.
    Found trapezoidal ringing on node Va:p.

........9........8........7........6.....

Notice from spectre at time = 1.4299 ns during transient analysis `DifTempo-015_DifTempo', during task `MDLControl'.
    Found trapezoidal ringing on node Va:p.

........9........8........7........6.......

Notice from spectre at time = 1.4899 ns during transient analysis `DifTempo-015_DifTempo', during task `MDLControl'.
    Found trapezoidal ringing on node Va:p.
        Further occurrences of this notice will be suppressed.

........9........8........7........6........5........4........3........2........1........0
Number of accepted tran steps =             80

Notice from spectre during transient analysis `DifTempo-015_DifTempo', during task `MDLControl'.
    Trapezoidal ringing is detected during tran analysis.
        Please use method=trap for better results and performance.


Maximum value achieved for any signal of each quantity: 
V: V(X1.M_i_3__m0_x2__m1:sbnode) = 1 V
I: I(Vd:p) = 118.2 uA
If your circuit contains signals of the same quantity that are vastly different in size (such as high voltage circuitry combined with low voltage control circuitry), you should consider specifying global option `bin_relref=yes'.

~~~~~~~~~~~~~~~~~~~~~~~~~~~~~~~~~
Post-Transient Simulation Summary
~~~~~~~~~~~~~~~~~~~~~~~~~~~~~~~~~
   -   To further speed up simulation, consider
          add ++aps on command line
~~~~~~~~~~~~~~~~~~~~~~~~~~~~~~~~~


During simulation, the CPU load for active processors is :
        Spectre  0 (54.7 %)      1 (39.0 %)      2 (52.3 %)      3 (29.8 %)
        Other   
Initial condition solution time: CPU = 554 us, elapsed = 560.045 us.
Intrinsic tran analysis time:    CPU = 13.719 ms, elapsed = 29.0871 ms.
Total time required for tran analysis `DifTempo-015_DifTempo': CPU = 15.435 ms, elapsed = 30.936 ms.
Time accumulated: CPU = 588.412 ms, elapsed = 1.75942 s.
Peak resident memory used = 64.6 Mbytes.


Notice from spectre during task `MDLControl'.
    26 notices suppressed.


****************************************************************
Transient Analysis `DifTempo-016_DifTempo': time = (0 s -> 3 ns)
****************************************************************
DC simulation time: CPU = 567 us, elapsed = 567.913 us.

Notice from spectre during transient analysis `DifTempo-016_DifTempo', during task `MDLControl'.
    No outputs were found. Loosening output filter criterion to `allpub'.


Opening the PSF file NAND.raw/DifTempo-016_DifTempo.tran.tran ...
Important parameter values:
    start = 0 s
    outputstart = 0 s
    stop = 3 ns
    step = 3 ps
    maxstep = 60 ps
    ic = all
    useprevic = no
    skipdc = no
    reltol = 1e-03
    abstol(V) = 1 uV
    abstol(I) = 1 pA
    temp = 27 C
    tnom = 27 C
    tempeffects = all
    errpreset = moderate
    method = traponly
    lteratio = 3.5
    relref = sigglobal
    cmin = 0 F
    gmin = 1 pS


Output and IC/nodeset summary:
                 save   3       (current)
                 save   6       (voltage)

........9........8........7........6........5

Notice from spectre at time = 1.55207 ns during transient analysis `DifTempo-016_DifTempo', during task `MDLControl'.
    Found trapezoidal ringing on node Va:p.

........9........8........7........6........5..

Notice from spectre at time = 1.61207 ns during transient analysis `DifTempo-016_DifTempo', during task `MDLControl'.
    Found trapezoidal ringing on node Va:p.

........9........8........7........6........5...

Notice from spectre at time = 1.67207 ns during transient analysis `DifTempo-016_DifTempo', during task `MDLControl'.
    Found trapezoidal ringing on node Va:p.

........9........8........7........6........5.....

Notice from spectre at time = 1.73207 ns during transient analysis `DifTempo-016_DifTempo', during task `MDLControl'.
    Found trapezoidal ringing on node Va:p.

........9........8........7........6........5.......

Notice from spectre at time = 1.79207 ns during transient analysis `DifTempo-016_DifTempo', during task `MDLControl'.
    Found trapezoidal ringing on node Va:p.
        Further occurrences of this notice will be suppressed.

........9........8........7........6........5........4........3........2........1........0
Number of accepted tran steps =             82

Notice from spectre during transient analysis `DifTempo-016_DifTempo', during task `MDLControl'.
    Trapezoidal ringing is detected during tran analysis.
        Please use method=trap for better results and performance.


Maximum value achieved for any signal of each quantity: 
V: V(X1.M_i_3__m0_x2__m1:sbnode) = 1 V
I: I(Vd:p) = 82.1 uA
If your circuit contains signals of the same quantity that are vastly different in size (such as high voltage circuitry combined with low voltage control circuitry), you should consider specifying global option `bin_relref=yes'.

~~~~~~~~~~~~~~~~~~~~~~~~~~~~~~~~~
Post-Transient Simulation Summary
~~~~~~~~~~~~~~~~~~~~~~~~~~~~~~~~~
   -   To further speed up simulation, consider
          add ++aps on command line
~~~~~~~~~~~~~~~~~~~~~~~~~~~~~~~~~


During simulation, the CPU load for active processors is :
        Spectre  0 (54.4 %)      1 (37.8 %)      2 (52.2 %)      3 (29.6 %)
        Other   
Initial condition solution time: CPU = 625 us, elapsed = 627.995 us.
Intrinsic tran analysis time:    CPU = 13.249 ms, elapsed = 28.1911 ms.
Total time required for tran analysis `DifTempo-016_DifTempo': CPU = 15.254 ms, elapsed = 30.1962 ms.
Time accumulated: CPU = 611.13 ms, elapsed = 1.84272 s.
Peak resident memory used = 64.6 Mbytes.


Notice from spectre during task `MDLControl'.
    21 notices suppressed.


****************************************************************
Transient Analysis `DifTempo-017_DifTempo': time = (0 s -> 3 ns)
****************************************************************
DC simulation time: CPU = 488 us, elapsed = 488.997 us.

Notice from spectre during transient analysis `DifTempo-017_DifTempo', during task `MDLControl'.
    No outputs were found. Loosening output filter criterion to `allpub'.


Opening the PSF file NAND.raw/DifTempo-017_DifTempo.tran.tran ...
Important parameter values:
    start = 0 s
    outputstart = 0 s
    stop = 3 ns
    step = 3 ps
    maxstep = 60 ps
    ic = all
    useprevic = no
    skipdc = no
    reltol = 1e-03
    abstol(V) = 1 uV
    abstol(I) = 1 pA
    temp = 27 C
    tnom = 27 C
    tempeffects = all
    errpreset = moderate
    method = traponly
    lteratio = 3.5
    relref = sigglobal
    cmin = 0 F
    gmin = 1 pS


Output and IC/nodeset summary:
                 save   3       (current)
                 save   6       (voltage)

........9........8........7........6........5.

Notice from spectre at time = 1.57676 ns during transient analysis `DifTempo-017_DifTempo', during task `MDLControl'.
    Found trapezoidal ringing on node Vd:p.

........9........8........7........6........5..

Notice from spectre at time = 1.63676 ns during transient analysis `DifTempo-017_DifTempo', during task `MDLControl'.
    Found trapezoidal ringing on node Vd:p.

........9........8........7........6........5....

Notice from spectre at time = 1.69676 ns during transient analysis `DifTempo-017_DifTempo', during task `MDLControl'.
    Found trapezoidal ringing on node Vd:p.

........9........8........7........6........5......

Notice from spectre at time = 1.75676 ns during transient analysis `DifTempo-017_DifTempo', during task `MDLControl'.
    Found trapezoidal ringing on node Vd:p.

........9........8........7........6........5........

Notice from spectre at time = 1.81676 ns during transient analysis `DifTempo-017_DifTempo', during task `MDLControl'.
    Found trapezoidal ringing on node Vd:p.
        Further occurrences of this notice will be suppressed.

........9........8........7........6........5........4........3........2........1........0
Number of accepted tran steps =             79

Notice from spectre during transient analysis `DifTempo-017_DifTempo', during task `MDLControl'.
    Trapezoidal ringing is detected during tran analysis.
        Please use method=trap for better results and performance.


Maximum value achieved for any signal of each quantity: 
V: V(X1.M_i_3__m0_x2__m1:sbnode) = 1 V
I: I(Vd:p) = 51.05 uA
If your circuit contains signals of the same quantity that are vastly different in size (such as high voltage circuitry combined with low voltage control circuitry), you should consider specifying global option `bin_relref=yes'.

~~~~~~~~~~~~~~~~~~~~~~~~~~~~~~~~~
Post-Transient Simulation Summary
~~~~~~~~~~~~~~~~~~~~~~~~~~~~~~~~~
   -   To further speed up simulation, consider
          add ++aps on command line
~~~~~~~~~~~~~~~~~~~~~~~~~~~~~~~~~


During simulation, the CPU load for active processors is :
        Spectre  0 (53.5 %)      1 (37.8 %)      2 (54.3 %)      3 (29.3 %)
        Other   
Initial condition solution time: CPU = 530 us, elapsed = 537.157 us.
Intrinsic tran analysis time:    CPU = 13.05 ms, elapsed = 28.3971 ms.
Total time required for tran analysis `DifTempo-017_DifTempo': CPU = 14.707 ms, elapsed = 30.1712 ms.
Time accumulated: CPU = 633.55 ms, elapsed = 1.92879 s.
Peak resident memory used = 64.6 Mbytes.


Notice from spectre during task `MDLControl'.
    20 notices suppressed.


****************************************************************
Transient Analysis `DifTempo-018_DifTempo': time = (0 s -> 3 ns)
****************************************************************
DC simulation time: CPU = 494 us, elapsed = 494.003 us.

Notice from spectre during transient analysis `DifTempo-018_DifTempo', during task `MDLControl'.
    No outputs were found. Loosening output filter criterion to `allpub'.


Opening the PSF file NAND.raw/DifTempo-018_DifTempo.tran.tran ...
Important parameter values:
    start = 0 s
    outputstart = 0 s
    stop = 3 ns
    step = 3 ps
    maxstep = 60 ps
    ic = all
    useprevic = no
    skipdc = no
    reltol = 1e-03
    abstol(V) = 1 uV
    abstol(I) = 1 pA
    temp = 27 C
    tnom = 27 C
    tempeffects = all
    errpreset = moderate
    method = traponly
    lteratio = 3.5
    relref = sigglobal
    cmin = 0 F
    gmin = 1 pS


Output and IC/nodeset summary:
                 save   3       (current)
                 save   6       (voltage)

........9........8........7........6........5........4.....

Notice from spectre at time = 2.02399 ns during transient analysis `DifTempo-018_DifTempo', during task `MDLControl'.
    Found trapezoidal ringing on node Vd:p.

........9........8........7........6........5........4.......

Notice from spectre at time = 2.08399 ns during transient analysis `DifTempo-018_DifTempo', during task `MDLControl'.
    Found trapezoidal ringing on node Vd:p.

........9........8........7........6........5........4........3

Notice from spectre at time = 2.14399 ns during transient analysis `DifTempo-018_DifTempo', during task `MDLControl'.
    Found trapezoidal ringing on node Vd:p.

........9........8........7........6........5........4........3.

Notice from spectre at time = 2.20399 ns during transient analysis `DifTempo-018_DifTempo', during task `MDLControl'.
    Found trapezoidal ringing on node Vd:p.

........9........8........7........6........5........4........3...

Notice from spectre at time = 2.26399 ns during transient analysis `DifTempo-018_DifTempo', during task `MDLControl'.
    Found trapezoidal ringing on node Vd:p.
        Further occurrences of this notice will be suppressed.

........9........8........7........6........5........4........3........2........1........0
Number of accepted tran steps =             75

Notice from spectre during transient analysis `DifTempo-018_DifTempo', during task `MDLControl'.
    Trapezoidal ringing is detected during tran analysis.
        Please use method=trap for better results and performance.


Maximum value achieved for any signal of each quantity: 
V: V(out) = 1 V
I: I(Vd:p) = 31.09 uA
If your circuit contains signals of the same quantity that are vastly different in size (such as high voltage circuitry combined with low voltage control circuitry), you should consider specifying global option `bin_relref=yes'.

~~~~~~~~~~~~~~~~~~~~~~~~~~~~~~~~~
Post-Transient Simulation Summary
~~~~~~~~~~~~~~~~~~~~~~~~~~~~~~~~~
   -   To further speed up simulation, consider
          add ++aps on command line
~~~~~~~~~~~~~~~~~~~~~~~~~~~~~~~~~


During simulation, the CPU load for active processors is :
        Spectre  0 (52.8 %)      1 (37.4 %)      2 (54.8 %)      3 (28.9 %)
        Other   
Initial condition solution time: CPU = 538 us, elapsed = 553.131 us.
Intrinsic tran analysis time:    CPU = 12.807 ms, elapsed = 28.3051 ms.
Total time required for tran analysis `DifTempo-018_DifTempo': CPU = 14.48 ms, elapsed = 30.1192 ms.
Time accumulated: CPU = 654.727 ms, elapsed = 2.01709 s.
Peak resident memory used = 64.6 Mbytes.


Notice from spectre during task `MDLControl'.
    13 notices suppressed.


****************************************************************
Transient Analysis `DifTempo-019_DifTempo': time = (0 s -> 3 ns)
****************************************************************
DC simulation time: CPU = 462 us, elapsed = 460.863 us.

Notice from spectre during transient analysis `DifTempo-019_DifTempo', during task `MDLControl'.
    No outputs were found. Loosening output filter criterion to `allpub'.


Opening the PSF file NAND.raw/DifTempo-019_DifTempo.tran.tran ...
Important parameter values:
    start = 0 s
    outputstart = 0 s
    stop = 3 ns
    step = 3 ps
    maxstep = 60 ps
    ic = all
    useprevic = no
    skipdc = no
    reltol = 1e-03
    abstol(V) = 1 uV
    abstol(I) = 1 pA
    temp = 27 C
    tnom = 27 C
    tempeffects = all
    errpreset = moderate
    method = traponly
    lteratio = 3.5
    relref = sigglobal
    cmin = 0 F
    gmin = 1 pS


Output and IC/nodeset summary:
                 save   3       (current)
                 save   6       (voltage)

........9........8........7........6........5........4........3........2....

Notice from spectre at time = 2.5997 ns during transient analysis `DifTempo-019_DifTempo', during task `MDLControl'.
    Found trapezoidal ringing on node Vd:p.

........9........8........7........6........5........4........3........2......

Notice from spectre at time = 2.6597 ns during transient analysis `DifTempo-019_DifTempo', during task `MDLControl'.
    Found trapezoidal ringing on node Vd:p.

........9........8........7........6........5........4........3........2........

Notice from spectre at time = 2.7197 ns during transient analysis `DifTempo-019_DifTempo', during task `MDLControl'.
    Found trapezoidal ringing on node Vd:p.

........9........8........7........6........5........4........3........2........1.

Notice from spectre at time = 2.7797 ns during transient analysis `DifTempo-019_DifTempo', during task `MDLControl'.
    Found trapezoidal ringing on node Vd:p.

........9........8........7........6........5........4........3........2........1..

Notice from spectre at time = 2.8397 ns during transient analysis `DifTempo-019_DifTempo', during task `MDLControl'.
    Found trapezoidal ringing on node Vd:p.
        Further occurrences of this notice will be suppressed.

........9........8........7........6........5........4........3........2........1........0
Number of accepted tran steps =             73

Notice from spectre during transient analysis `DifTempo-019_DifTempo', during task `MDLControl'.
    Trapezoidal ringing is detected during tran analysis.
        Please use method=trap for better results and performance.


Maximum value achieved for any signal of each quantity: 
V: V(out) = 1 V
I: I(Vd:p) = 18.77 uA
If your circuit contains signals of the same quantity that are vastly different in size (such as high voltage circuitry combined with low voltage control circuitry), you should consider specifying global option `bin_relref=yes'.

~~~~~~~~~~~~~~~~~~~~~~~~~~~~~~~~~
Post-Transient Simulation Summary
~~~~~~~~~~~~~~~~~~~~~~~~~~~~~~~~~
   -   To further speed up simulation, consider
          add ++aps on command line
~~~~~~~~~~~~~~~~~~~~~~~~~~~~~~~~~


During simulation, the CPU load for active processors is :
        Spectre  0 (52.4 %)      1 (37.6 %)      2 (53.2 %)      3 (28.3 %)
        Other   
Initial condition solution time: CPU = 500 us, elapsed = 507.116 us.
Intrinsic tran analysis time:    CPU = 13.658 ms, elapsed = 29.5429 ms.
Total time required for tran analysis `DifTempo-019_DifTempo': CPU = 15.273 ms, elapsed = 31.281 ms.
Time accumulated: CPU = 676.59 ms, elapsed = 2.10164 s.
Peak resident memory used = 64.6 Mbytes.


Notice from spectre during task `MDLControl'.
    3 notices suppressed.


****************************************************************
Transient Analysis `DifTempo-020_DifTempo': time = (0 s -> 3 ns)
****************************************************************
DC simulation time: CPU = 539 us, elapsed = 538.826 us.

Notice from spectre during transient analysis `DifTempo-020_DifTempo', during task `MDLControl'.
    No outputs were found. Loosening output filter criterion to `allpub'.


Opening the PSF file NAND.raw/DifTempo-020_DifTempo.tran.tran ...
Important parameter values:
    start = 0 s
    outputstart = 0 s
    stop = 3 ns
    step = 3 ps
    maxstep = 60 ps
    ic = all
    useprevic = no
    skipdc = no
    reltol = 1e-03
    abstol(V) = 1 uV
    abstol(I) = 1 pA
    temp = 27 C
    tnom = 27 C
    tempeffects = all
    errpreset = moderate
    method = traponly
    lteratio = 3.5
    relref = sigglobal
    cmin = 0 F
    gmin = 1 pS


Output and IC/nodeset summary:
                 save   3       (current)
                 save   6       (voltage)

........9........8........7........6...

Notice from spectre at time = 1.36355 ns during transient analysis `DifTempo-020_DifTempo', during task `MDLControl'.
    Found trapezoidal ringing on node Vb:p.

........9........8........7........6.....

Notice from spectre at time = 1.42355 ns during transient analysis `DifTempo-020_DifTempo', during task `MDLControl'.
    Found trapezoidal ringing on node Vb:p.

........9........8........7........6........5

Notice from spectre at time = 1.54355 ns during transient analysis `DifTempo-020_DifTempo', during task `MDLControl'.
    Found trapezoidal ringing on node Vb:p.

........9........8........7........6........5........4........3........2........1

Notice from spectre at time = 2.76979 ns during transient analysis `DifTempo-020_DifTempo', during task `MDLControl'.
    Found trapezoidal ringing on node Va:p.

........9........8........7........6........5........4........3........2........1..

Notice from spectre at time = 2.82979 ns during transient analysis `DifTempo-020_DifTempo', during task `MDLControl'.
    Found trapezoidal ringing on node Va:p.
        Further occurrences of this notice will be suppressed.

........9........8........7........6........5........4........3........2........1........0
Number of accepted tran steps =             66

Notice from spectre during transient analysis `DifTempo-020_DifTempo', during task `MDLControl'.
    Trapezoidal ringing is detected during tran analysis.
        Please use method=trap for better results and performance.


Maximum value achieved for any signal of each quantity: 
V: V(X1.M_i_3__m0_x2__m1:sbnode) = 1 V
I: I(Vd:p) = 11.1 uA
If your circuit contains signals of the same quantity that are vastly different in size (such as high voltage circuitry combined with low voltage control circuitry), you should consider specifying global option `bin_relref=yes'.

~~~~~~~~~~~~~~~~~~~~~~~~~~~~~~~~~
Post-Transient Simulation Summary
~~~~~~~~~~~~~~~~~~~~~~~~~~~~~~~~~
   -   To further speed up simulation, consider
          add ++aps on command line
~~~~~~~~~~~~~~~~~~~~~~~~~~~~~~~~~


During simulation, the CPU load for active processors is :
        Spectre  0 (51.6 %)      1 (37.7 %)      2 (54.7 %)      3 (28.0 %)
        Other   
[...]
        Please use method=trap for better results and performance.


Maximum value achieved for any signal of each quantity: 
V: V(X1.M_i_2__m0_x2__m0:sbnode) = 1 V
I: I(Vd:p) = 236.6 uA
If your circuit contains signals of the same quantity that are vastly different in size (such as high voltage circuitry combined with low voltage control circuitry), you should consider specifying global option `bin_relref=yes'.

~~~~~~~~~~~~~~~~~~~~~~~~~~~~~~~~~
Post-Transient Simulation Summary
~~~~~~~~~~~~~~~~~~~~~~~~~~~~~~~~~
   -   To further speed up simulation, consider
          add ++aps on command line
~~~~~~~~~~~~~~~~~~~~~~~~~~~~~~~~~


During simulation, the CPU load for active processors is :
        Spectre  0 (45.9 %)      1 (40.1 %)      2 (50.2 %)      3 (30.1 %)
        Other   
Initial condition solution time: CPU = 498 us, elapsed = 504.017 us.
Intrinsic tran analysis time:    CPU = 13.801 ms, elapsed = 37.7231 ms.
Total time required for tran analysis `DifTempo-043_DifTempo': CPU = 15.369 ms, elapsed = 39.4089 ms.
Time accumulated: CPU = 1.20405 s, elapsed = 4.46314 s.
Peak resident memory used = 64.9 Mbytes.


Notice from spectre during task `MDLControl'.
    22 notices suppressed.


****************************************************************
Transient Analysis `DifTempo-044_DifTempo': time = (0 s -> 3 ns)
****************************************************************
DC simulation time: CPU = 476 us, elapsed = 476.122 us.

Notice from spectre during transient analysis `DifTempo-044_DifTempo', during task `MDLControl'.
    No outputs were found. Loosening output filter criterion to `allpub'.


Opening the PSF file NAND.raw/DifTempo-044_DifTempo.tran.tran ...
Important parameter values:
    start = 0 s
    outputstart = 0 s
    stop = 3 ns
    step = 3 ps
    maxstep = 60 ps
    ic = all
    useprevic = no
    skipdc = no
    reltol = 1e-03
    abstol(V) = 1 uV
    abstol(I) = 1 pA
    temp = 27 C
    tnom = 27 C
    tempeffects = all
    errpreset = moderate
    method = traponly
    lteratio = 3.5
    relref = sigglobal
    cmin = 0 F
    gmin = 1 pS


Output and IC/nodeset summary:
                 save   3       (current)
                 save   6       (voltage)

........9........8........7........6........5....

Notice from spectre at time = 1.68135 ns during transient analysis `DifTempo-044_DifTempo', during task `MDLControl'.
    Found trapezoidal ringing on node Vd:p.

........9........8........7........6........5.....

Notice from spectre at time = 1.74135 ns during transient analysis `DifTempo-044_DifTempo', during task `MDLControl'.
    Found trapezoidal ringing on node Vd:p.

........9........8........7........6........5.......

Notice from spectre at time = 1.80135 ns during transient analysis `DifTempo-044_DifTempo', during task `MDLControl'.
    Found trapezoidal ringing on node Vd:p.

........9........8........7........6........5........4

Notice from spectre at time = 1.86135 ns during transient analysis `DifTempo-044_DifTempo', during task `MDLControl'.
    Found trapezoidal ringing on node Vd:p.

........9........8........7........6........5........4..

Notice from spectre at time = 1.92135 ns during transient analysis `DifTempo-044_DifTempo', during task `MDLControl'.
    Found trapezoidal ringing on node Vd:p.
        Further occurrences of this notice will be suppressed.

........9........8........7........6........5........4........3........2........1........0
Number of accepted tran steps =             79

Notice from spectre during transient analysis `DifTempo-044_DifTempo', during task `MDLControl'.
    Trapezoidal ringing is detected during tran analysis.
        Please use method=trap for better results and performance.


Maximum value achieved for any signal of each quantity: 
V: V(X1.M_i_2__m0_x2__m0:sbnode) = 1 V
I: I(Vd:p) = 219.2 uA
If your circuit contains signals of the same quantity that are vastly different in size (such as high voltage circuitry combined with low voltage control circuitry), you should consider specifying global option `bin_relref=yes'.

~~~~~~~~~~~~~~~~~~~~~~~~~~~~~~~~~
Post-Transient Simulation Summary
~~~~~~~~~~~~~~~~~~~~~~~~~~~~~~~~~
   -   To further speed up simulation, consider
          add ++aps on command line
~~~~~~~~~~~~~~~~~~~~~~~~~~~~~~~~~


During simulation, the CPU load for active processors is :
        Spectre  0 (46.4 %)      1 (39.8 %)      2 (49.9 %)      3 (29.6 %)
        Other   
Initial condition solution time: CPU = 526 us, elapsed = 533.104 us.
Intrinsic tran analysis time:    CPU = 13.291 ms, elapsed = 37.3349 ms.
Total time required for tran analysis `DifTempo-044_DifTempo': CPU = 14.964 ms, elapsed = 39.135 ms.
Time accumulated: CPU = 1.22604 s, elapsed = 4.57112 s.
Peak resident memory used = 64.9 Mbytes.


Notice from spectre during task `MDLControl'.
    18 notices suppressed.


****************************************************************
Transient Analysis `DifTempo-045_DifTempo': time = (0 s -> 3 ns)
****************************************************************
DC simulation time: CPU = 485 us, elapsed = 484.943 us.

Notice from spectre during transient analysis `DifTempo-045_DifTempo', during task `MDLControl'.
    No outputs were found. Loosening output filter criterion to `allpub'.


Opening the PSF file NAND.raw/DifTempo-045_DifTempo.tran.tran ...
Important parameter values:
    start = 0 s
    outputstart = 0 s
    stop = 3 ns
    step = 3 ps
    maxstep = 60 ps
    ic = all
    useprevic = no
    skipdc = no
    reltol = 1e-03
    abstol(V) = 1 uV
    abstol(I) = 1 pA
    temp = 27 C
    tnom = 27 C
    tempeffects = all
    errpreset = moderate
    method = traponly
    lteratio = 3.5
    relref = sigglobal
    cmin = 0 F
    gmin = 1 pS


Output and IC/nodeset summary:
                 save   3       (current)
                 save   6       (voltage)

........9........8........7........6........5......

Notice from spectre at time = 1.74911 ns during transient analysis `DifTempo-045_DifTempo', during task `MDLControl'.
    Found trapezoidal ringing on node Vd:p.

........9........8........7........6........5.......

Notice from spectre at time = 1.80911 ns during transient analysis `DifTempo-045_DifTempo', during task `MDLControl'.
    Found trapezoidal ringing on node Vd:p.

........9........8........7........6........5........4

Notice from spectre at time = 1.86911 ns during transient analysis `DifTempo-045_DifTempo', during task `MDLControl'.
    Found trapezoidal ringing on node Vd:p.

........9........8........7........6........5........4..

Notice from spectre at time = 1.92911 ns during transient analysis `DifTempo-045_DifTempo', during task `MDLControl'.
    Found trapezoidal ringing on node Vd:p.

........9........8........7........6........5........4....

Notice from spectre at time = 1.98911 ns during transient analysis `DifTempo-045_DifTempo', during task `MDLControl'.
    Found trapezoidal ringing on node Vd:p.
        Further occurrences of this notice will be suppressed.

........9........8........7........6........5........4........3........2........1........0
Number of accepted tran steps =             72

Notice from spectre during transient analysis `DifTempo-045_DifTempo', during task `MDLControl'.
    Trapezoidal ringing is detected during tran analysis.
        Please use method=trap for better results and performance.


Maximum value achieved for any signal of each quantity: 
V: V(X1.M_i_3__m0_x2__m1:sbnode) = 1 V
I: I(Vd:p) = 177.3 uA
If your circuit contains signals of the same quantity that are vastly different in size (such as high voltage circuitry combined with low voltage control circuitry), you should consider specifying global option `bin_relref=yes'.

~~~~~~~~~~~~~~~~~~~~~~~~~~~~~~~~~
Post-Transient Simulation Summary
~~~~~~~~~~~~~~~~~~~~~~~~~~~~~~~~~
   -   To further speed up simulation, consider
          add ++aps on command line
~~~~~~~~~~~~~~~~~~~~~~~~~~~~~~~~~


During simulation, the CPU load for active processors is :
        Spectre  0 (47.5 %)      1 (39.1 %)      2 (49.5 %)      3 (29.7 %)
        Other   
Initial condition solution time: CPU = 541 us, elapsed = 548.124 us.
Intrinsic tran analysis time:    CPU = 12.446 ms, elapsed = 36.0842 ms.
Total time required for tran analysis `DifTempo-045_DifTempo': CPU = 14.193 ms, elapsed = 37.9491 ms.
Time accumulated: CPU = 1.24724 s, elapsed = 4.67841 s.
Peak resident memory used = 64.9 Mbytes.


Notice from spectre during task `MDLControl'.
    17 notices suppressed.


****************************************************************
Transient Analysis `DifTempo-046_DifTempo': time = (0 s -> 3 ns)
****************************************************************
DC simulation time: CPU = 470 us, elapsed = 470.877 us.

Notice from spectre during transient analysis `DifTempo-046_DifTempo', during task `MDLControl'.
    No outputs were found. Loosening output filter criterion to `allpub'.


Opening the PSF file NAND.raw/DifTempo-046_DifTempo.tran.tran ...
Important parameter values:
    start = 0 s
    outputstart = 0 s
    stop = 3 ns
    step = 3 ps
    maxstep = 60 ps
    ic = all
    useprevic = no
    skipdc = no
    reltol = 1e-03
    abstol(V) = 1 uV
    abstol(I) = 1 pA
    temp = 27 C
    tnom = 27 C
    tempeffects = all
    errpreset = moderate
    method = traponly
    lteratio = 3.5
    relref = sigglobal
    cmin = 0 F
    gmin = 1 pS


Output and IC/nodeset summary:
                 save   3       (current)
                 save   6       (voltage)

........9........8........7........6........5........4.

Notice from spectre at time = 1.90282 ns during transient analysis `DifTempo-046_DifTempo', during task `MDLControl'.
    Found trapezoidal ringing on node X1.net_0__m0__m1.

........9........8........7........6........5........4...

Notice from spectre at time = 1.96282 ns during transient analysis `DifTempo-046_DifTempo', during task `MDLControl'.
    Found trapezoidal ringing on node X1.net_0__m0__m1.

........9........8........7........6........5........4.....

Notice from spectre at time = 2.02282 ns during transient analysis `DifTempo-046_DifTempo', during task `MDLControl'.
    Found trapezoidal ringing on node X1.net_0__m0__m1.

........9........8........7........6........5........4.......

Notice from spectre at time = 2.08282 ns during transient analysis `DifTempo-046_DifTempo', during task `MDLControl'.
    Found trapezoidal ringing on node X1.net_0__m0__m1.

........9........8........7........6........5........4........

Notice from spectre at time = 2.14282 ns during transient analysis `DifTempo-046_DifTempo', during task `MDLControl'.
    Found trapezoidal ringing on node X1.net_0__m0__m1.
        Further occurrences of this notice will be suppressed.

........9........8........7........6........5........4........3........2........1........0
Number of accepted tran steps =             72

Notice from spectre during transient analysis `DifTempo-046_DifTempo', during task `MDLControl'.
    Trapezoidal ringing is detected during tran analysis.
        Please use method=trap for better results and performance.


Maximum value achieved for any signal of each quantity: 
V: V(X1.M_i_3__m0_x2__m1:sbnode) = 1 V
I: I(Vd:p) = 119.3 uA
If your circuit contains signals of the same quantity that are vastly different in size (such as high voltage circuitry combined with low voltage control circuitry), you should consider specifying global option `bin_relref=yes'.

~~~~~~~~~~~~~~~~~~~~~~~~~~~~~~~~~
Post-Transient Simulation Summary
~~~~~~~~~~~~~~~~~~~~~~~~~~~~~~~~~
   -   To further speed up simulation, consider
          add ++aps on command line
~~~~~~~~~~~~~~~~~~~~~~~~~~~~~~~~~


During simulation, the CPU load for active processors is :
        Spectre  0 (46.8 %)      1 (39.2 %)      2 (50.2 %)      3 (29.4 %)
        Other   
Initial condition solution time: CPU = 512 us, elapsed = 514.984 us.
Intrinsic tran analysis time:    CPU = 12.635 ms, elapsed = 36.2511 ms.
Total time required for tran analysis `DifTempo-046_DifTempo': CPU = 14.228 ms, elapsed = 37.8439 ms.
Time accumulated: CPU = 1.26907 s, elapsed = 4.78697 s.
Peak resident memory used = 64.9 Mbytes.


Notice from spectre during task `MDLControl'.
    15 notices suppressed.


****************************************************************
Transient Analysis `DifTempo-047_DifTempo': time = (0 s -> 3 ns)
****************************************************************
DC simulation time: CPU = 456 us, elapsed = 457.048 us.

Notice from spectre during transient analysis `DifTempo-047_DifTempo', during task `MDLControl'.
    No outputs were found. Loosening output filter criterion to `allpub'.


Opening the PSF file NAND.raw/DifTempo-047_DifTempo.tran.tran ...
Important parameter values:
    start = 0 s
    outputstart = 0 s
    stop = 3 ns
    step = 3 ps
    maxstep = 60 ps
    ic = all
    useprevic = no
    skipdc = no
    reltol = 1e-03
    abstol(V) = 1 uV
    abstol(I) = 1 pA
    temp = 27 C
    tnom = 27 C
    tempeffects = all
    errpreset = moderate
    method = traponly
    lteratio = 3.5
    relref = sigglobal
    cmin = 0 F
    gmin = 1 pS


Output and IC/nodeset summary:
                 save   3       (current)
                 save   6       (voltage)

........9........8........7........6

Notice from spectre at time = 1.26596 ns during transient analysis `DifTempo-047_DifTempo', during task `MDLControl'.
    Found trapezoidal ringing on node Vb:p.

........9........8........7........6........5........4........3.......

Notice from spectre at time = 2.40783 ns during transient analysis `DifTempo-047_DifTempo', during task `MDLControl'.
    Found trapezoidal ringing on node X1.net_0__m0__m1.

........9........8........7........6........5........4........3........2

Notice from spectre at time = 2.46783 ns during transient analysis `DifTempo-047_DifTempo', during task `MDLControl'.
    Found trapezoidal ringing on node X1.net_0__m0__m1.

........9........8........7........6........5........4........3........2..

Notice from spectre at time = 2.52783 ns during transient analysis `DifTempo-047_DifTempo', during task `MDLControl'.
    Found trapezoidal ringing on node X1.net_0__m0__m1.

........9........8........7........6........5........4........3........2....

Notice from spectre at time = 2.58783 ns during transient analysis `DifTempo-047_DifTempo', during task `MDLControl'.
    Found trapezoidal ringing on node X1.net_0__m0__m1.
        Further occurrences of this notice will be suppressed.

........9........8........7........6........5........4........3........2........1........0
Number of accepted tran steps =             70

Notice from spectre during transient analysis `DifTempo-047_DifTempo', during task `MDLControl'.
    Trapezoidal ringing is detected during tran analysis.
        Please use method=trap for better results and performance.


Maximum value achieved for any signal of each quantity: 
V: V(X1.M_i_3__m0_x2__m1:sbnode) = 1 V
I: I(Vd:p) = 78.51 uA
If your circuit contains signals of the same quantity that are vastly different in size (such as high voltage circuitry combined with low voltage control circuitry), you should consider specifying global option `bin_relref=yes'.

~~~~~~~~~~~~~~~~~~~~~~~~~~~~~~~~~
Post-Transient Simulation Summary
~~~~~~~~~~~~~~~~~~~~~~~~~~~~~~~~~
   -   To further speed up simulation, consider
          add ++aps on command line
~~~~~~~~~~~~~~~~~~~~~~~~~~~~~~~~~


During simulation, the CPU load for active processors is :
        Spectre  0 (46.4 %)      1 (38.6 %)      2 (51.2 %)      3 (29.3 %)
        Other   
Initial condition solution time: CPU = 494 us, elapsed = 494.957 us.
Intrinsic tran analysis time:    CPU = 12.522 ms, elapsed = 36.335 ms.
Total time required for tran analysis `DifTempo-047_DifTempo': CPU = 14.114 ms, elapsed = 37.9269 ms.
Time accumulated: CPU = 1.2904 s, elapsed = 4.89531 s.
Peak resident memory used = 65 Mbytes.


Notice from spectre during task `MDLControl'.
    7 notices suppressed.


****************************************************************
Transient Analysis `DifTempo-048_DifTempo': time = (0 s -> 3 ns)
****************************************************************
DC simulation time: CPU = 460 us, elapsed = 460.863 us.

Notice from spectre during transient analysis `DifTempo-048_DifTempo', during task `MDLControl'.
    No outputs were found. Loosening output filter criterion to `allpub'.


Opening the PSF file NAND.raw/DifTempo-048_DifTempo.tran.tran ...
Important parameter values:
    start = 0 s
    outputstart = 0 s
    stop = 3 ns
    step = 3 ps
    maxstep = 60 ps
    ic = all
    useprevic = no
    skipdc = no
    reltol = 1e-03
    abstol(V) = 1 uV
    abstol(I) = 1 pA
    temp = 27 C
    tnom = 27 C
    tempeffects = all
    errpreset = moderate
    method = traponly
    lteratio = 3.5
    relref = sigglobal
    cmin = 0 F
    gmin = 1 pS


Output and IC/nodeset summary:
                 save   3       (current)
                 save   6       (voltage)

........9........8........7........6

Notice from spectre at time = 1.24992 ns during transient analysis `DifTempo-048_DifTempo', during task `MDLControl'.
    Found trapezoidal ringing on node Vb:p.

........9........8........7........6.

Notice from spectre at time = 1.30992 ns during transient analysis `DifTempo-048_DifTempo', during task `MDLControl'.
    Found trapezoidal ringing on node Vb:p.

........9........8........7........6...

Notice from spectre at time = 1.36992 ns during transient analysis `DifTempo-048_DifTempo', during task `MDLControl'.
    Found trapezoidal ringing on node Vb:p.

........9........8........7........6.....

Notice from spectre at time = 1.42992 ns during transient analysis `DifTempo-048_DifTempo', during task `MDLControl'.
    Found trapezoidal ringing on node Vb:p.

........9........8........7........6........5

Notice from spectre at time = 1.54992 ns during transient analysis `DifTempo-048_DifTempo', during task `MDLControl'.
    Found trapezoidal ringing on node Vb:p.
        Further occurrences of this notice will be suppressed.

........9........8........7........6........5........4........3........2........1........0
Number of accepted tran steps =             61

Notice from spectre during transient analysis `DifTempo-048_DifTempo', during task `MDLControl'.
    Trapezoidal ringing is detected during tran analysis.
        Please use method=trap for better results and performance.


Maximum value achieved for any signal of each quantity: 
V: V(X1.M_i_3__m0_x2__m1:sbnode) = 1 V
I: I(Vd:p) = 49.09 uA
If your circuit contains signals of the same quantity that are vastly different in size (such as high voltage circuitry combined with low voltage control circuitry), you should consider specifying global option `bin_relref=yes'.

~~~~~~~~~~~~~~~~~~~~~~~~~~~~~~~~~
Post-Transient Simulation Summary
~~~~~~~~~~~~~~~~~~~~~~~~~~~~~~~~~
   -   To further speed up simulation, consider
          add ++aps on command line
~~~~~~~~~~~~~~~~~~~~~~~~~~~~~~~~~


During simulation, the CPU load for active processors is :
        Spectre  0 (46.4 %)      1 (38.6 %)      2 (52.3 %)      3 (28.9 %)
        Other   
Initial condition solution time: CPU = 505 us, elapsed = 506.878 us.
Intrinsic tran analysis time:    CPU = 10.707 ms, elapsed = 34.7471 ms.
Total time required for tran analysis `DifTempo-048_DifTempo': CPU = 12.274 ms, elapsed = 36.315 ms.
Time accumulated: CPU = 1.30966 s, elapsed = 5.0021 s.
Peak resident memory used = 65 Mbytes.


Aggregate audit (11:24:01 AM, Thur Jan 9, 2020):
Time used: CPU = 1.31 s, elapsed = 5.05 s, util. = 26%.
Time spent in licensing: elapsed = 32.4 ms.
Peak memory used = 65.4 Mbytes.
Simulation started at: 11:23:56 AM, Thur Jan 9, 2020, ended at: 11:24:01 AM, Thur Jan 9, 2020, with elapsed time (wall clock): 5.05 s.
spectre completes with 0 errors, 3 warnings, and 389 notices.
