
Spectre (R) Circuit Simulator
Version 16.1.0.673.isr14 64bit -- 30 Mar 2018
Copyright (C) 1989-2018 Cadence Design Systems, Inc. All rights reserved worldwide. Cadence and Spectre are registered trademarks of Cadence Design Systems, Inc. All others are the property of their respective holders.

Includes RSA BSAFE(R) Cryptographic or Security Protocol Software from RSA Security, Inc.

User: brunozimmer   Host: itacolomi.lapsi   HostID: 7F0100   PID: 28487
Memory  available: 842.1376 MB  physical: 33.7038 GB
Linux   : CentOS Linux release 7.6.1810 (Core) 
CPU Type: Intel(R) Xeon(R) CPU E3-1220 V2 @ 3.10GHz
All processors running at 3303.0 MHz
        Socket: Processors
        0:       0,  1,  2,  3
        
System load averages (1min, 5min, 15min) : 55.5 %, 58.5 %, 58.0 %


Simulating `inversor.scs' on itacolomi.lapsi at 12:30:21 PM, Mon Jan 13, 2020 (process id: 28487).
Current working directory: /home/brunozimmer/Documentos/Lab05a/Inv
Command line:
    /tools/cadence/SPECTRE161/tools.lnx86/bin/spectre -64 =mdl  \
        falltime.mdl inversor.scs

Loading /tools/cadence/SPECTRE161/tools.lnx86/cmi/lib/64bit/5.0/libinfineon_sh.so ...
Loading /tools/cadence/SPECTRE161/tools.lnx86/cmi/lib/64bit/5.0/libphilips_o_sh.so ...
Loading /tools/cadence/SPECTRE161/tools.lnx86/cmi/lib/64bit/5.0/libphilips_sh.so ...
Loading /tools/cadence/SPECTRE161/tools.lnx86/cmi/lib/64bit/5.0/libsparam_sh.so ...
Loading /tools/cadence/SPECTRE161/tools.lnx86/cmi/lib/64bit/5.0/libstmodels_sh.so ...
Loading /tools/cadence/SPECTRE161/tools.lnx86/spectre/lib/64bit/mdl/libSpectreEH_sh.so ...

Warning from spectre.
    WARNING (MDL-1452): line 1, column 1: syntax error before or at: *
            unrecognised statement.

Reading file:  /home/brunozimmer/Documentos/Lab05a/Inv/inversor.scs
Reading file:  /tools/cadence/SPECTRE161/tools.lnx86/spectre/etc/configs/mapsubckt.cfg
Reading file:  /tools/cadence/SPECTRE161/tools.lnx86/spectre/etc/configs/spectre.cfg
Reading file:  /home/brunozimmer/Documentos/Lab05a/Inv/45nm_LP.pm
Reading file:  /home/brunozimmer/Documentos/Lab05a/Inv/INV.spi
Time for NDB Parsing: CPU = 211.972 ms, elapsed = 269.094 ms.
Time accumulated: CPU = 230.785 ms, elapsed = 269.103 ms.
Peak resident memory used = 52.9 Mbytes.

Reading link:  /tools/cadence/SPECTRE161/tools.lnx86/spectre/etc/ahdl/discipline.h
Reading file:  /tools/cadence/SPECTRE161/tools.lnx86/spectre/etc/ahdl/disciplines.vams
Reading link:  /tools/cadence/SPECTRE161/tools.lnx86/spectre/etc/ahdl/constants.h
Reading file:  /tools/cadence/SPECTRE161/tools.lnx86/spectre/etc/ahdl/constants.vams
Time for Elaboration: CPU = 18.603 ms, elapsed = 18.749 ms.
Time accumulated: CPU = 249.548 ms, elapsed = 288.031 ms.
Peak resident memory used = 59.6 Mbytes.


Warning from spectre during hierarchy flattening.
    WARNING (SFE-2468): A MDL control file 'falltime.mdl' is specified.  All .measure, .print and .probe statements in netlist 'inversor.scs' are ignored.



Warning from spectre during circuit read-in.
    WARNING:     Analysis tran for .print not found, ignoring

Time for EDB Visiting: CPU = 801 us, elapsed = 828.981 us.
Time accumulated: CPU = 250.5 ms, elapsed = 289.028 ms.
Peak resident memory used = 60.3 Mbytes.


Global user options:
             rawfmt = psfbin

Scoped user options:

Circuit inventory:
              nodes 3
              bsim4 2     
          capacitor 1     
            vsource 2     

Analysis and control statement inventory:
               tran 1     

Output statements:
             .probe 1     
           .measure 0     
               save 0     

Time for parsing: CPU = 2.187 ms, elapsed = 37.5969 ms.
Time accumulated: CPU = 252.807 ms, elapsed = 326.76 ms.
Peak resident memory used = 61.6 Mbytes.

~~~~~~~~~~~~~~~~~~~~~~
Pre-Simulation Summary
~~~~~~~~~~~~~~~~~~~~~~
~~~~~~~~~~~~~~~~~~~~~~

****************************************************************
Transient Analysis `DifTempo-000_DifTempo': time = (0 s -> 4 ns)
****************************************************************
DC simulation time: CPU = 519 us, elapsed = 519.991 us.

Notice from spectre during transient analysis `DifTempo-000_DifTempo', during task `MDLControl'.
    No outputs were found. Loosening output filter criterion to `allpub'.


Opening the PSF file inversor.raw/DifTempo-000_DifTempo.tran.tran ...
Important parameter values:
    start = 0 s
    outputstart = 0 s
    stop = 4 ns
    step = 4 ps
    maxstep = 80 ps
    ic = all
    useprevic = no
    skipdc = no
    reltol = 1e-03
    abstol(V) = 1 uV
    abstol(I) = 1 pA
    temp = 27 C
    tnom = 27 C
    tempeffects = all
    errpreset = moderate
    method = traponly
    lteratio = 3.5
    relref = sigglobal
    cmin = 0 F
    gmin = 1 pS


Output and IC/nodeset summary:
                 save   2       (current)
                 save   3       (voltage)

........9........8.......

Notice from spectre at time = 1.12327 ns during transient analysis `DifTempo-000_DifTempo', during task `MDLControl'.
    Found trapezoidal ringing on node Vd:p.
Notice from spectre at time = 1.18516 ns during transient analysis `DifTempo-000_DifTempo', during task `MDLControl'.
    Found trapezoidal ringing on node Vd:p.

........9........8........7

Notice from spectre at time = 1.26516 ns during transient analysis `DifTempo-000_DifTempo', during task `MDLControl'.
    Found trapezoidal ringing on node Vd:p.

........9........8........7.

Notice from spectre at time = 1.34516 ns during transient analysis `DifTempo-000_DifTempo', during task `MDLControl'.
    Found trapezoidal ringing on node Vd:p.

........9........8........7...

Notice from spectre at time = 1.42516 ns during transient analysis `DifTempo-000_DifTempo', during task `MDLControl'.
    Found trapezoidal ringing on node Vd:p.
        Further occurrences of this notice will be suppressed.

........9........8........7........6........5........4........3........2........1........0
Number of accepted tran steps =             87

Notice from spectre during transient analysis `DifTempo-000_DifTempo', during task `MDLControl'.
    Trapezoidal ringing is detected during tran analysis.
        Please use method=trap for better results and performance.


Maximum value achieved for any signal of each quantity: 
V: V(out) = 1.089 V
I: I(Va:p) = 58.07 uA
If your circuit contains signals of the same quantity that are vastly different in size (such as high voltage circuitry combined with low voltage control circuitry), you should consider specifying global option `bin_relref=yes'.

~~~~~~~~~~~~~~~~~~~~~~~~~~~~~~~~~
Post-Transient Simulation Summary
~~~~~~~~~~~~~~~~~~~~~~~~~~~~~~~~~
   -   To further speed up simulation, consider
          add ++aps on command line
~~~~~~~~~~~~~~~~~~~~~~~~~~~~~~~~~


During simulation, the CPU load for active processors is :
        Spectre  0 (100.0 %)     1 (100.0 %)     2 (77.1 %)      3 (58.3 %)
        Other   
Initial condition solution time: CPU = 577 us, elapsed = 579.119 us.
Intrinsic tran analysis time:    CPU = 8.91 ms, elapsed = 23.654 ms.
Total time required for tran analysis `DifTempo-000_DifTempo': CPU = 10.933 ms, elapsed = 25.774 ms.
Time accumulated: CPU = 272 ms, elapsed = 424.157 ms.
Peak resident memory used = 64.2 Mbytes.


Notice from spectre during task `MDLControl'.
    33 notices suppressed.


****************************************************************
Transient Analysis `DifTempo-001_DifTempo': time = (0 s -> 4 ns)
****************************************************************
DC simulation time: CPU = 279 us, elapsed = 279.903 us.

Notice from spectre during transient analysis `DifTempo-001_DifTempo', during task `MDLControl'.
    No outputs were found. Loosening output filter criterion to `allpub'.


Opening the PSF file inversor.raw/DifTempo-001_DifTempo.tran.tran ...
Important parameter values:
    start = 0 s
    outputstart = 0 s
    stop = 4 ns
    step = 4 ps
    maxstep = 80 ps
    ic = all
    useprevic = no
    skipdc = no
    reltol = 1e-03
    abstol(V) = 1 uV
    abstol(I) = 1 pA
    temp = 27 C
    tnom = 27 C
    tempeffects = all
    errpreset = moderate
    method = traponly
    lteratio = 3.5
    relref = sigglobal
    cmin = 0 F
    gmin = 1 pS


Output and IC/nodeset summary:
                 save   2       (current)
                 save   3       (voltage)

........9........8......

Notice from spectre at time = 1.08698 ns during transient analysis `DifTempo-001_DifTempo', during task `MDLControl'.
    Found trapezoidal ringing on node X1.M_i_0:int_b.
Notice from spectre at time = 1.08736 ns during transient analysis `DifTempo-001_DifTempo', during task `MDLControl'.
    Found trapezoidal ringing on node X1.M_i_0:int_b.

........9........8........7

Notice from spectre at time = 1.28498 ns during transient analysis `DifTempo-001_DifTempo', during task `MDLControl'.
    Found trapezoidal ringing on node Va:p.

........9........8........7..

Notice from spectre at time = 1.36498 ns during transient analysis `DifTempo-001_DifTempo', during task `MDLControl'.
    Found trapezoidal ringing on node Va:p.

........9........8........7....

Notice from spectre at time = 1.44498 ns during transient analysis `DifTempo-001_DifTempo', during task `MDLControl'.
    Found trapezoidal ringing on node Va:p.
        Further occurrences of this notice will be suppressed.

........9........8........7........6........5........4........3........2........1........0
Number of accepted tran steps =             86

Notice from spectre during transient analysis `DifTempo-001_DifTempo', during task `MDLControl'.
    Trapezoidal ringing is detected during tran analysis.
        Please use method=trap for better results and performance.


Maximum value achieved for any signal of each quantity: 
V: V(out) = 1.043 V
I: I(Va:p) = 34.35 uA
If your circuit contains signals of the same quantity that are vastly different in size (such as high voltage circuitry combined with low voltage control circuitry), you should consider specifying global option `bin_relref=yes'.

~~~~~~~~~~~~~~~~~~~~~~~~~~~~~~~~~
Post-Transient Simulation Summary
~~~~~~~~~~~~~~~~~~~~~~~~~~~~~~~~~
   -   To further speed up simulation, consider
          add ++aps on command line
~~~~~~~~~~~~~~~~~~~~~~~~~~~~~~~~~


During simulation, the CPU load for active processors is :
        Spectre  0 (100.0 %)     1 (100.0 %)     2 (75.0 %)      3 (57.8 %)
        Other   
Initial condition solution time: CPU = 319 us, elapsed = 321.15 us.
Intrinsic tran analysis time:    CPU = 10.486 ms, elapsed = 34.3652 ms.
Total time required for tran analysis `DifTempo-001_DifTempo': CPU = 11.979 ms, elapsed = 35.8591 ms.
Time accumulated: CPU = 291.334 ms, elapsed = 517.457 ms.
Peak resident memory used = 64.4 Mbytes.


Notice from spectre during task `MDLControl'.
    32 notices suppressed.


****************************************************************
Transient Analysis `DifTempo-002_DifTempo': time = (0 s -> 4 ns)
****************************************************************
DC simulation time: CPU = 289 us, elapsed = 288.963 us.

Notice from spectre during transient analysis `DifTempo-002_DifTempo', during task `MDLControl'.
    No outputs were found. Loosening output filter criterion to `allpub'.


Opening the PSF file inversor.raw/DifTempo-002_DifTempo.tran.tran ...
Important parameter values:
    start = 0 s
    outputstart = 0 s
    stop = 4 ns
    step = 4 ps
    maxstep = 80 ps
    ic = all
    useprevic = no
    skipdc = no
    reltol = 1e-03
    abstol(V) = 1 uV
    abstol(I) = 1 pA
    temp = 27 C
    tnom = 27 C
    tempeffects = all
    errpreset = moderate
    method = traponly
    lteratio = 3.5
    relref = sigglobal
    cmin = 0 F
    gmin = 1 pS


Output and IC/nodeset summary:
                 save   2       (current)
                 save   3       (voltage)

........9........8........7..

Notice from spectre at time = 1.38439 ns during transient analysis `DifTempo-002_DifTempo', during task `MDLControl'.
    Found trapezoidal ringing on node Va:p.

........9........8........7....

Notice from spectre at time = 1.46439 ns during transient analysis `DifTempo-002_DifTempo', during task `MDLControl'.
    Found trapezoidal ringing on node Va:p.

........9........8........7......

Notice from spectre at time = 1.54439 ns during transient analysis `DifTempo-002_DifTempo', during task `MDLControl'.
    Found trapezoidal ringing on node Va:p.

........9........8........7........

Notice from spectre at time = 1.62439 ns during transient analysis `DifTempo-002_DifTempo', during task `MDLControl'.
    Found trapezoidal ringing on node Va:p.

........9........8........7........6.

Notice from spectre at time = 1.70439 ns during transient analysis `DifTempo-002_DifTempo', during task `MDLControl'.
    Found trapezoidal ringing on node Va:p.
        Further occurrences of this notice will be suppressed.

........9........8........7........6........5........4........3........2........1........0
Number of accepted tran steps =             83

Notice from spectre during transient analysis `DifTempo-002_DifTempo', during task `MDLControl'.
    Trapezoidal ringing is detected during tran analysis.
        Please use method=trap for better results and performance.


Maximum value achieved for any signal of each quantity: 
V: V(out) = 1.037 V
I: I(Va:p) = 23.36 uA
If your circuit contains signals of the same quantity that are vastly different in size (such as high voltage circuitry combined with low voltage control circuitry), you should consider specifying global option `bin_relref=yes'.

~~~~~~~~~~~~~~~~~~~~~~~~~~~~~~~~~
Post-Transient Simulation Summary
~~~~~~~~~~~~~~~~~~~~~~~~~~~~~~~~~
   -   To further speed up simulation, consider
          add ++aps on command line
~~~~~~~~~~~~~~~~~~~~~~~~~~~~~~~~~


During simulation, the CPU load for active processors is :
        Spectre  0 (100.0 %)     1 (100.0 %)     2 (69.8 %)      3 (53.7 %)
        Other   
Initial condition solution time: CPU = 330 us, elapsed = 332.117 us.
Intrinsic tran analysis time:    CPU = 9.258 ms, elapsed = 27.2841 ms.
Total time required for tran analysis `DifTempo-002_DifTempo': CPU = 10.734 ms, elapsed = 28.8019 ms.
Time accumulated: CPU = 309.14 ms, elapsed = 602.167 ms.
Peak resident memory used = 64.4 Mbytes.


Notice from spectre during task `MDLControl'.
    29 notices suppressed.


****************************************************************
Transient Analysis `DifTempo-003_DifTempo': time = (0 s -> 4 ns)
****************************************************************
DC simulation time: CPU = 282 us, elapsed = 282.049 us.

Notice from spectre during transient analysis `DifTempo-003_DifTempo', during task `MDLControl'.
    No outputs were found. Loosening output filter criterion to `allpub'.


Opening the PSF file inversor.raw/DifTempo-003_DifTempo.tran.tran ...
Important parameter values:
    start = 0 s
    outputstart = 0 s
    stop = 4 ns
    step = 4 ps
    maxstep = 80 ps
    ic = all
    useprevic = no
    skipdc = no
    reltol = 1e-03
    abstol(V) = 1 uV
    abstol(I) = 1 pA
    temp = 27 C
    tnom = 27 C
    tempeffects = all
    errpreset = moderate
    method = traponly
    lteratio = 3.5
    relref = sigglobal
    cmin = 0 F
    gmin = 1 pS


Output and IC/nodeset summary:
                 save   2       (current)
                 save   3       (voltage)

........9........8........7..

Notice from spectre at time = 1.3125 ns during transient analysis `DifTempo-003_DifTempo', during task `MDLControl'.
    Found trapezoidal ringing on node Va:p.

........9........8........7.......

Notice from spectre at time = 1.58046 ns during transient analysis `DifTempo-003_DifTempo', during task `MDLControl'.
    Found trapezoidal ringing on node out.

........9........8........7........6

Notice from spectre at time = 1.66046 ns during transient analysis `DifTempo-003_DifTempo', during task `MDLControl'.
    Found trapezoidal ringing on node out.

........9........8........7........6.

Notice from spectre at time = 1.74046 ns during transient analysis `DifTempo-003_DifTempo', during task `MDLControl'.
    Found trapezoidal ringing on node out.

........9........8........7........6...

Notice from spectre at time = 1.82046 ns during transient analysis `DifTempo-003_DifTempo', during task `MDLControl'.
    Found trapezoidal ringing on node out.
        Further occurrences of this notice will be suppressed.

........9........8........7........6........5........4........3........2........1........0
Number of accepted tran steps =             81

Notice from spectre during transient analysis `DifTempo-003_DifTempo', during task `MDLControl'.
    Trapezoidal ringing is detected during tran analysis.
        Please use method=trap for better results and performance.


Maximum value achieved for any signal of each quantity: 
V: V(out) = 1.019 V
I: I(Va:p) = 13.34 uA
If your circuit contains signals of the same quantity that are vastly different in size (such as high voltage circuitry combined with low voltage control circuitry), you should consider specifying global option `bin_relref=yes'.

~~~~~~~~~~~~~~~~~~~~~~~~~~~~~~~~~
Post-Transient Simulation Summary
~~~~~~~~~~~~~~~~~~~~~~~~~~~~~~~~~
   -   To further speed up simulation, consider
          add ++aps on command line
~~~~~~~~~~~~~~~~~~~~~~~~~~~~~~~~~


During simulation, the CPU load for active processors is :
        Spectre  0 (100.0 %)     1 (100.0 %)     2 (68.3 %)      3 (55.6 %)
        Other   
Initial condition solution time: CPU = 332 us, elapsed = 338.078 us.
Intrinsic tran analysis time:    CPU = 11.661 ms, elapsed = 44.1909 ms.
Total time required for tran analysis `DifTempo-003_DifTempo': CPU = 13.219 ms, elapsed = 45.9609 ms.
Time accumulated: CPU = 329.531 ms, elapsed = 702.976 ms.
Peak resident memory used = 64.4 Mbytes.


Notice from spectre during task `MDLControl'.
    28 notices suppressed.


****************************************************************
Transient Analysis `DifTempo-004_DifTempo': time = (0 s -> 4 ns)
****************************************************************
DC simulation time: CPU = 289 us, elapsed = 289.917 us.

Notice from spectre during transient analysis `DifTempo-004_DifTempo', during task `MDLControl'.
    No outputs were found. Loosening output filter criterion to `allpub'.


Opening the PSF file inversor.raw/DifTempo-004_DifTempo.tran.tran ...
Important parameter values:
    start = 0 s
    outputstart = 0 s
    stop = 4 ns
    step = 4 ps
    maxstep = 80 ps
    ic = all
    useprevic = no
    skipdc = no
    reltol = 1e-03
    abstol(V) = 1 uV
    abstol(I) = 1 pA
    temp = 27 C
    tnom = 27 C
    tempeffects = all
    errpreset = moderate
    method = traponly
    lteratio = 3.5
    relref = sigglobal
    cmin = 0 F
    gmin = 1 pS


Output and IC/nodeset summary:
                 save   2       (current)
                 save   3       (voltage)

........9........8........7.......

Notice from spectre at time = 1.56263 ns during transient analysis `DifTempo-004_DifTempo', during task `MDLControl'.
    Found trapezoidal ringing on node Va:p.

........9........8........7........

Notice from spectre at time = 1.59375 ns during transient analysis `DifTempo-004_DifTempo', during task `MDLControl'.
    Found trapezoidal ringing on node Va:p.

........9........8........7........6......

Notice from spectre at time = 1.94667 ns during transient analysis `DifTempo-004_DifTempo', during task `MDLControl'.
    Found trapezoidal ringing on node out.

........9........8........7........6........

Notice from spectre at time = 2.02667 ns during transient analysis `DifTempo-004_DifTempo', during task `MDLControl'.
    Found trapezoidal ringing on node out.

........9........8........7........6........5.

Notice from spectre at time = 2.10667 ns during transient analysis `DifTempo-004_DifTempo', during task `MDLControl'.
    Found trapezoidal ringing on node out.
        Further occurrences of this notice will be suppressed.

........9........8........7........6........5........4........3........2........1........0
Number of accepted tran steps =             79

Notice from spectre during transient analysis `DifTempo-004_DifTempo', during task `MDLControl'.
    Trapezoidal ringing is detected during tran analysis.
        Please use method=trap for better results and performance.


Maximum value achieved for any signal of each quantity: 
V: V(out) = 1.007 V
I: I(Va:p) = 7.592 uA
If your circuit contains signals of the same quantity that are vastly different in size (such as high voltage circuitry combined with low voltage control circuitry), you should consider specifying global option `bin_relref=yes'.

~~~~~~~~~~~~~~~~~~~~~~~~~~~~~~~~~
Post-Transient Simulation Summary
~~~~~~~~~~~~~~~~~~~~~~~~~~~~~~~~~
   -   To further speed up simulation, consider
          add ++aps on command line
~~~~~~~~~~~~~~~~~~~~~~~~~~~~~~~~~


During simulation, the CPU load for active processors is :
        Spectre  0 (100.0 %)     1 (100.0 %)     2 (66.7 %)      3 (63.2 %)
        Other   
Initial condition solution time: CPU = 333 us, elapsed = 334.978 us.
Intrinsic tran analysis time:    CPU = 11.907 ms, elapsed = 52.0201 ms.
Total time required for tran analysis `DifTempo-004_DifTempo': CPU = 13.388 ms, elapsed = 53.539 ms.
Time accumulated: CPU = 350.11 ms, elapsed = 833.003 ms.
Peak resident memory used = 64.4 Mbytes.


Notice from spectre during task `MDLControl'.
    24 notices suppressed.


****************************************************************
Transient Analysis `DifTempo-005_DifTempo': time = (0 s -> 4 ns)
****************************************************************
DC simulation time: CPU = 276 us, elapsed = 277.042 us.

Notice from spectre during transient analysis `DifTempo-005_DifTempo', during task `MDLControl'.
    No outputs were found. Loosening output filter criterion to `allpub'.


Opening the PSF file inversor.raw/DifTempo-005_DifTempo.tran.tran ...
Important parameter values:
    start = 0 s
    outputstart = 0 s
    stop = 4 ns
    step = 4 ps
    maxstep = 80 ps
    ic = all
    useprevic = no
    skipdc = no
    reltol = 1e-03
    abstol(V) = 1 uV
    abstol(I) = 1 pA
    temp = 27 C
    tnom = 27 C
    tempeffects = all
    errpreset = moderate
    method = traponly
    lteratio = 3.5
    relref = sigglobal
    cmin = 0 F
    gmin = 1 pS


Output and IC/nodeset summary:
                 save   2       (current)
                 save   3       (voltage)

........9........8........7........6.......

Notice from spectre at time = 1.9706 ns during transient analysis `DifTempo-005_DifTempo', during task `MDLControl'.
    Found trapezoidal ringing on node Va:p.

........9........8........7........6........

Notice from spectre at time = 2.0506 ns during transient analysis `DifTempo-005_DifTempo', during task `MDLControl'.
    Found trapezoidal ringing on node Va:p.

........9........8........7........6........5.

Notice from spectre at time = 2.1275 ns during transient analysis `DifTempo-005_DifTempo', during task `MDLControl'.
    Found trapezoidal ringing on node Va:p.

........9........8........7........6........5........4...

Notice from spectre at time = 2.61018 ns during transient analysis `DifTempo-005_DifTempo', during task `MDLControl'.
    Found trapezoidal ringing on node out.

........9........8........7........6........5........4.....

Notice from spectre at time = 2.69018 ns during transient analysis `DifTempo-005_DifTempo', during task `MDLControl'.
    Found trapezoidal ringing on node out.
        Further occurrences of this notice will be suppressed.

........9........8........7........6........5........4........3........2........1........0
Number of accepted tran steps =             74

Notice from spectre during transient analysis `DifTempo-005_DifTempo', during task `MDLControl'.
    Trapezoidal ringing is detected during tran analysis.
        Please use method=trap for better results and performance.


Maximum value achieved for any signal of each quantity: 
V: V(out) = 1.004 V
I: I(Va:p) = 4.373 uA
If your circuit contains signals of the same quantity that are vastly different in size (such as high voltage circuitry combined with low voltage control circuitry), you should consider specifying global option `bin_relref=yes'.

~~~~~~~~~~~~~~~~~~~~~~~~~~~~~~~~~
Post-Transient Simulation Summary
~~~~~~~~~~~~~~~~~~~~~~~~~~~~~~~~~
   -   To further speed up simulation, consider
          add ++aps on command line
~~~~~~~~~~~~~~~~~~~~~~~~~~~~~~~~~


During simulation, the CPU load for active processors is :
        Spectre  0 (100.0 %)     1 (100.0 %)     2 (64.0 %)      3 (64.0 %)
        Other   
Initial condition solution time: CPU = 318 us, elapsed = 319.004 us.
Intrinsic tran analysis time:    CPU = 8.655 ms, elapsed = 32.4359 ms.
Total time required for tran analysis `DifTempo-005_DifTempo': CPU = 10.098 ms, elapsed = 33.8812 ms.
Time accumulated: CPU = 367.593 ms, elapsed = 932.806 ms.
Peak resident memory used = 64.4 Mbytes.


Notice from spectre during task `MDLControl'.
    17 notices suppressed.


****************************************************************
Transient Analysis `DifTempo-006_DifTempo': time = (0 s -> 4 ns)
****************************************************************
DC simulation time: CPU = 276 us, elapsed = 275.85 us.

Notice from spectre during transient analysis `DifTempo-006_DifTempo', during task `MDLControl'.
    No outputs were found. Loosening output filter criterion to `allpub'.


Opening the PSF file inversor.raw/DifTempo-006_DifTempo.tran.tran ...
Important parameter values:
    start = 0 s
    outputstart = 0 s
    stop = 4 ns
    step = 4 ps
    maxstep = 80 ps
    ic = all
    useprevic = no
    skipdc = no
    reltol = 1e-03
    abstol(V) = 1 uV
    abstol(I) = 1 pA
    temp = 27 C
    tnom = 27 C
    tempeffects = all
    errpreset = moderate
    method = traponly
    lteratio = 3.5
    relref = sigglobal
    cmin = 0 F
    gmin = 1 pS


Output and IC/nodeset summary:
                 save   2       (current)
                 save   3       (voltage)

........9........8........7....

Notice from spectre at time = 1.47221 ns during transient analysis `DifTempo-006_DifTempo', during task `MDLControl'.
    Found trapezoidal ringing on node Vd:p.

........9........8........7......

Notice from spectre at time = 1.55221 ns during transient analysis `DifTempo-006_DifTempo', during task `MDLControl'.
    Found trapezoidal ringing on node Vd:p.

........9........8........7........6........5........4....

Notice from spectre at time = 2.66336 ns during transient analysis `DifTempo-006_DifTempo', during task `MDLControl'.
    Found trapezoidal ringing on node Vd:p.

........9........8........7........6........5........4......

Notice from spectre at time = 2.74336 ns during transient analysis `DifTempo-006_DifTempo', during task `MDLControl'.
    Found trapezoidal ringing on node Vd:p.

........9........8........7........6........5........4........

Notice from spectre at time = 2.82336 ns during transient analysis `DifTempo-006_DifTempo', during task `MDLControl'.
    Found trapezoidal ringing on node Vd:p.
        Further occurrences of this notice will be suppressed.

........9........8........7........6........5........4........3........2........1........0
Number of accepted tran steps =             69

Notice from spectre during transient analysis `DifTempo-006_DifTempo', during task `MDLControl'.
    Trapezoidal ringing is detected during tran analysis.
        Please use method=trap for better results and performance.


Maximum value achieved for any signal of each quantity: 
V: V(out) = 1.002 V
I: I(Va:p) = 2.498 uA
If your circuit contains signals of the same quantity that are vastly different in size (such as high voltage circuitry combined with low voltage control circuitry), you should consider specifying global option `bin_relref=yes'.

~~~~~~~~~~~~~~~~~~~~~~~~~~~~~~~~~
Post-Transient Simulation Summary
~~~~~~~~~~~~~~~~~~~~~~~~~~~~~~~~~
   -   To further speed up simulation, consider
          add ++aps on command line
~~~~~~~~~~~~~~~~~~~~~~~~~~~~~~~~~


During simulation, the CPU load for active processors is :
        Spectre  0 (100.0 %)     1 (100.0 %)     2 (61.5 %)      3 (61.5 %)
        Other   
Initial condition solution time: CPU = 316 us, elapsed = 316.858 us.
Intrinsic tran analysis time:    CPU = 8.664 ms, elapsed = 33.4399 ms.
Total time required for tran analysis `DifTempo-006_DifTempo': CPU = 10.125 ms, elapsed = 34.9419 ms.
Time accumulated: CPU = 385.081 ms, elapsed = 1.0339 s.
Peak resident memory used = 64.4 Mbytes.


Notice from spectre during task `MDLControl'.
    10 notices suppressed.


****************************************************************
Transient Analysis `DifTempo-007_DifTempo': time = (0 s -> 4 ns)
****************************************************************
DC simulation time: CPU = 307 us, elapsed = 308.037 us.

Notice from spectre during transient analysis `DifTempo-007_DifTempo', during task `MDLControl'.
    No outputs were found. Loosening output filter criterion to `allpub'.


Opening the PSF file inversor.raw/DifTempo-007_DifTempo.tran.tran ...
Important parameter values:
    start = 0 s
    outputstart = 0 s
    stop = 4 ns
    step = 4 ps
    maxstep = 80 ps
    ic = all
    useprevic = no
    skipdc = no
    reltol = 1e-03
    abstol(V) = 1 uV
    abstol(I) = 1 pA
    temp = 27 C
    tnom = 27 C
    tempeffects = all
    errpreset = moderate
    method = traponly
    lteratio = 3.5
    relref = sigglobal
    cmin = 0 F
    gmin = 1 pS


Output and IC/nodeset summary:
                 save   2       (current)
                 save   3       (voltage)

........9........8.......

Notice from spectre at time = 1.13369 ns during transient analysis `DifTempo-007_DifTempo', during task `MDLControl'.
    Found trapezoidal ringing on node Vd:p.

........9........8........

Notice from spectre at time = 1.20304 ns during transient analysis `DifTempo-007_DifTempo', during task `MDLControl'.
    Found trapezoidal ringing on node Vd:p.

........9........8........7

Notice from spectre at time = 1.28304 ns during transient analysis `DifTempo-007_DifTempo', during task `MDLControl'.
    Found trapezoidal ringing on node Vd:p.

........9........8........7..

Notice from spectre at time = 1.36304 ns during transient analysis `DifTempo-007_DifTempo', during task `MDLControl'.
    Found trapezoidal ringing on node Vd:p.

........9........8........7....

Notice from spectre at time = 1.44304 ns during transient analysis `DifTempo-007_DifTempo', during task `MDLControl'.
    Found trapezoidal ringing on node Vd:p.
        Further occurrences of this notice will be suppressed.

........9........8........7........6........5........4........3........2........1........0
Number of accepted tran steps =             89

Notice from spectre during transient analysis `DifTempo-007_DifTempo', during task `MDLControl'.
    Trapezoidal ringing is detected during tran analysis.
        Please use method=trap for better results and performance.


Maximum value achieved for any signal of each quantity: 
V: V(out) = 1.083 V
I: I(Va:p) = 55.79 uA
If your circuit contains signals of the same quantity that are vastly different in size (such as high voltage circuitry combined with low voltage control circuitry), you should consider specifying global option `bin_relref=yes'.

~~~~~~~~~~~~~~~~~~~~~~~~~~~~~~~~~
Post-Transient Simulation Summary
~~~~~~~~~~~~~~~~~~~~~~~~~~~~~~~~~
   -   To further speed up simulation, consider
          add ++aps on command line
~~~~~~~~~~~~~~~~~~~~~~~~~~~~~~~~~


During simulation, the CPU load for active processors is :
        Spectre  0 (100.0 %)     1 (100.0 %)     2 (58.2 %)      3 (55.9 %)
        Other   
Initial condition solution time: CPU = 350 us, elapsed = 351.906 us.
Intrinsic tran analysis time:    CPU = 8.661 ms, elapsed = 32.5959 ms.
Total time required for tran analysis `DifTempo-007_DifTempo': CPU = 10.108 ms, elapsed = 34.0428 ms.
Time accumulated: CPU = 403.688 ms, elapsed = 1.17455 s.
Peak resident memory used = 64.4 Mbytes.


Notice from spectre during task `MDLControl'.
    32 notices suppressed.


****************************************************************
Transient Analysis `DifTempo-008_DifTempo': time = (0 s -> 4 ns)
****************************************************************
DC simulation time: CPU = 279 us, elapsed = 280.857 us.

Notice from spectre during transient analysis `DifTempo-008_DifTempo', during task `MDLControl'.
    No outputs were found. Loosening output filter criterion to `allpub'.


Opening the PSF file inversor.raw/DifTempo-008_DifTempo.tran.tran ...
Important parameter values:
    start = 0 s
    outputstart = 0 s
    stop = 4 ns
    step = 4 ps
    maxstep = 80 ps
    ic = all
    useprevic = no
    skipdc = no
    reltol = 1e-03
    abstol(V) = 1 uV
    abstol(I) = 1 pA
    temp = 27 C
    tnom = 27 C
    tempeffects = all
    errpreset = moderate
    method = traponly
    lteratio = 3.5
    relref = sigglobal
    cmin = 0 F
    gmin = 1 pS


Output and IC/nodeset summary:
                 save   2       (current)
                 save   3       (voltage)

........9........8........7

Notice from spectre at time = 1.27321 ns during transient analysis `DifTempo-008_DifTempo', during task `MDLControl'.
    Found trapezoidal ringing on node Vd:p.

........9........8........7..

Notice from spectre at time = 1.35321 ns during transient analysis `DifTempo-008_DifTempo', during task `MDLControl'.
    Found trapezoidal ringing on node Vd:p.

........9........8........7...

Notice from spectre at time = 1.43321 ns during transient analysis `DifTempo-008_DifTempo', during task `MDLControl'.
    Found trapezoidal ringing on node Vd:p.

........9........8........7.....

Notice from spectre at time = 1.51321 ns during transient analysis `DifTempo-008_DifTempo', during task `MDLControl'.
    Found trapezoidal ringing on node Vd:p.

........9........8........7.......

Notice from spectre at time = 1.59321 ns during transient analysis `DifTempo-008_DifTempo', during task `MDLControl'.
    Found trapezoidal ringing on node Vd:p.
        Further occurrences of this notice will be suppressed.

........9........8........7........6........5........4........3........2........1........0
Number of accepted tran steps =             94

Notice from spectre during transient analysis `DifTempo-008_DifTempo', during task `MDLControl'.
    Trapezoidal ringing is detected during tran analysis.
        Please use method=trap for better results and performance.


Maximum value achieved for any signal of each quantity: 
V: V(out) = 1.054 V
I: I(Va:p) = 33.37 uA
If your circuit contains signals of the same quantity that are vastly different in size (such as high voltage circuitry combined with low voltage control circuitry), you should consider specifying global option `bin_relref=yes'.

~~~~~~~~~~~~~~~~~~~~~~~~~~~~~~~~~
Post-Transient Simulation Summary
~~~~~~~~~~~~~~~~~~~~~~~~~~~~~~~~~
   -   To further speed up simulation, consider
          add ++aps on command line
~~~~~~~~~~~~~~~~~~~~~~~~~~~~~~~~~


During simulation, the CPU load for active processors is :
        Spectre  0 (100.0 %)     1 (100.0 %)     2 (55.4 %)      3 (54.9 %)
        Other   
Initial condition solution time: CPU = 328 us, elapsed = 378.847 us.
Intrinsic tran analysis time:    CPU = 9.453 ms, elapsed = 35.404 ms.
Total time required for tran analysis `DifTempo-008_DifTempo': CPU = 11.232 ms, elapsed = 38.6591 ms.
Time accumulated: CPU = 422.257 ms, elapsed = 1.27951 s.
Peak resident memory used = 64.4 Mbytes.


Notice from spectre during task `MDLControl'.
    31 notices suppressed.


****************************************************************
Transient Analysis `DifTempo-009_DifTempo': time = (0 s -> 4 ns)
****************************************************************
DC simulation time: CPU = 278 us, elapsed = 278.95 us.

Notice from spectre during transient analysis `DifTempo-009_DifTempo', during task `MDLControl'.
    No outputs were found. Loosening output filter criterion to `allpub'.


Opening the PSF file inversor.raw/DifTempo-009_DifTempo.tran.tran ...
Important parameter values:
    start = 0 s
    outputstart = 0 s
    stop = 4 ns
    step = 4 ps
    maxstep = 80 ps
    ic = all
    useprevic = no
    skipdc = no
    reltol = 1e-03
    abstol(V) = 1 uV
    abstol(I) = 1 pA
    temp = 27 C
    tnom = 27 C
    tempeffects = all
    errpreset = moderate
    method = traponly
    lteratio = 3.5
    relref = sigglobal
    cmin = 0 F
    gmin = 1 pS


Output and IC/nodeset summary:
                 save   2       (current)
                 save   3       (voltage)

........9........8........7..

Notice from spectre at time = 1.35773 ns during transient analysis `DifTempo-009_DifTempo', during task `MDLControl'.
    Found trapezoidal ringing on node Va:p.

........9........8........7....

Notice from spectre at time = 1.43773 ns during transient analysis `DifTempo-009_DifTempo', during task `MDLControl'.
    Found trapezoidal ringing on node Va:p.

........9........8........7.....

Notice from spectre at time = 1.51773 ns during transient analysis `DifTempo-009_DifTempo', during task `MDLControl'.
    Found trapezoidal ringing on node Va:p.

........9........8........7.......

Notice from spectre at time = 1.59773 ns during transient analysis `DifTempo-009_DifTempo', during task `MDLControl'.
    Found trapezoidal ringing on node Va:p.

........9........8........7........6

Notice from spectre at time = 1.67773 ns during transient analysis `DifTempo-009_DifTempo', during task `MDLControl'.
    Found trapezoidal ringing on node Va:p.
        Further occurrences of this notice will be suppressed.

........9........8........7........6........5........4........3........2........1........0
Number of accepted tran steps =             89

Notice from spectre during transient analysis `DifTempo-009_DifTempo', during task `MDLControl'.
    Trapezoidal ringing is detected during tran analysis.
        Please use method=trap for better results and performance.


Maximum value achieved for any signal of each quantity: 
V: V(out) = 1.035 V
I: I(Va:p) = 22.44 uA
If your circuit contains signals of the same quantity that are vastly different in size (such as high voltage circuitry combined with low voltage control circuitry), you should consider specifying global option `bin_relref=yes'.

~~~~~~~~~~~~~~~~~~~~~~~~~~~~~~~~~
Post-Transient Simulation Summary
~~~~~~~~~~~~~~~~~~~~~~~~~~~~~~~~~
   -   To further speed up simulation, consider
          add ++aps on command line
~~~~~~~~~~~~~~~~~~~~~~~~~~~~~~~~~


During simulation, the CPU load for active processors is :
        Spectre  0 (100.0 %)     1 (100.0 %)     2 (54.2 %)      3 (52.3 %)
        Other   
Initial condition solution time: CPU = 317 us, elapsed = 319.004 us.
Intrinsic tran analysis time:    CPU = 10.761 ms, elapsed = 40.1161 ms.
Total time required for tran analysis `DifTempo-009_DifTempo': CPU = 12.199 ms, elapsed = 41.5561 ms.
Time accumulated: CPU = 441.605 ms, elapsed = 1.3905 s.
Peak resident memory used = 64.4 Mbytes.


Notice from spectre during task `MDLControl'.
    30 notices suppressed.


****************************************************************
Transient Analysis `DifTempo-010_DifTempo': time = (0 s -> 4 ns)
****************************************************************
DC simulation time: CPU = 306 us, elapsed = 307.083 us.

Notice from spectre during transient analysis `DifTempo-010_DifTempo', during task `MDLControl'.
    No outputs were found. Loosening output filter criterion to `allpub'.


Opening the PSF file inversor.raw/DifTempo-010_DifTempo.tran.tran ...
Important parameter values:
    start = 0 s
    outputstart = 0 s
    stop = 4 ns
    step = 4 ps
    maxstep = 80 ps
    ic = all
    useprevic = no
    skipdc = no
    reltol = 1e-03
    abstol(V) = 1 uV
    abstol(I) = 1 pA
    temp = 27 C
    tnom = 27 C
    tempeffects = all
    errpreset = moderate
    method = traponly
    lteratio = 3.5
    relref = sigglobal
    cmin = 0 F
    gmin = 1 pS


Output and IC/nodeset summary:
                 save   2       (current)
                 save   3       (voltage)

........9........8........7..

Notice from spectre at time = 1.3125 ns during transient analysis `DifTempo-010_DifTempo', during task `MDLControl'.
    Found trapezoidal ringing on node Va:p.

........9........8........7......

Notice from spectre at time = 1.55683 ns during transient analysis `DifTempo-010_DifTempo', during task `MDLControl'.
    Found trapezoidal ringing on node out.

........9........8........7........

Notice from spectre at time = 1.63683 ns during transient analysis `DifTempo-010_DifTempo', during task `MDLControl'.
    Found trapezoidal ringing on node out.

........9........8........7........6.

Notice from spectre at time = 1.71683 ns during transient analysis `DifTempo-010_DifTempo', during task `MDLControl'.
    Found trapezoidal ringing on node out.

........9........8........7........6...

Notice from spectre at time = 1.79683 ns during transient analysis `DifTempo-010_DifTempo', during task `MDLControl'.
    Found trapezoidal ringing on node out.
        Further occurrences of this notice will be suppressed.

........9........8........7........6........5........4........3........2........1........0
Number of accepted tran steps =             83

Notice from spectre during transient analysis `DifTempo-010_DifTempo', during task `MDLControl'.
    Trapezoidal ringing is detected during tran analysis.
        Please use method=trap for better results and performance.


Maximum value achieved for any signal of each quantity: 
V: V(out) = 1.019 V
I: I(Va:p) = 12.81 uA
If your circuit contains signals of the same quantity that are vastly different in size (such as high voltage circuitry combined with low voltage control circuitry), you should consider specifying global option `bin_relref=yes'.

~~~~~~~~~~~~~~~~~~~~~~~~~~~~~~~~~
Post-Transient Simulation Summary
~~~~~~~~~~~~~~~~~~~~~~~~~~~~~~~~~
   -   To further speed up simulation, consider
          add ++aps on command line
~~~~~~~~~~~~~~~~~~~~~~~~~~~~~~~~~


During simulation, the CPU load for active processors is :
        Spectre  0 (100.0 %)     1 (100.0 %)     2 (52.8 %)      3 (50.7 %)
        Other   
Initial condition solution time: CPU = 359 us, elapsed = 364.065 us.
Intrinsic tran analysis time:    CPU = 9.068 ms, elapsed = 32.9289 ms.
Total time required for tran analysis `DifTempo-010_DifTempo': CPU = 10.605 ms, elapsed = 34.584 ms.
Time accumulated: CPU = 459.618 ms, elapsed = 1.49189 s.
Peak resident memory used = 64.5 Mbytes.


Notice from spectre during task `MDLControl'.
    28 notices suppressed.


****************************************************************
Transient Analysis `DifTempo-011_DifTempo': time = (0 s -> 4 ns)
****************************************************************
DC simulation time: CPU = 284 us, elapsed = 284.195 us.

Notice from spectre during transient analysis `DifTempo-011_DifTempo', during task `MDLControl'.
    No outputs were found. Loosening output filter criterion to `allpub'.


Opening the PSF file inversor.raw/DifTempo-011_DifTempo.tran.tran ...
Important parameter values:
    start = 0 s
    outputstart = 0 s
    stop = 4 ns
    step = 4 ps
    maxstep = 80 ps
    ic = all
    useprevic = no
    skipdc = no
    reltol = 1e-03
    abstol(V) = 1 uV
    abstol(I) = 1 pA
    temp = 27 C
    tnom = 27 C
    tempeffects = all
    errpreset = moderate
    method = traponly
    lteratio = 3.5
    relref = sigglobal
    cmin = 0 F
    gmin = 1 pS


Output and IC/nodeset summary:
                 save   2       (current)
                 save   3       (voltage)

........9........8........7......

Notice from spectre at time = 1.5267 ns during transient analysis `DifTempo-011_DifTempo', during task `MDLControl'.
    Found trapezoidal ringing on node Va:p.

........9........8........7.......

Notice from spectre at time = 1.59248 ns during transient analysis `DifTempo-011_DifTempo', during task `MDLControl'.
    Found trapezoidal ringing on node Va:p.

........9........8........7........6....

Notice from spectre at time = 1.863 ns during transient analysis `DifTempo-011_DifTempo', during task `MDLControl'.
    Found trapezoidal ringing on node Va:p.

........9........8........7........6......

Notice from spectre at time = 1.943 ns during transient analysis `DifTempo-011_DifTempo', during task `MDLControl'.
    Found trapezoidal ringing on node Va:p.

........9........8........7........6........

Notice from spectre at time = 2.023 ns during transient analysis `DifTempo-011_DifTempo', during task `MDLControl'.
    Found trapezoidal ringing on node Va:p.
        Further occurrences of this notice will be suppressed.

........9........8........7........6........5........4........3........2........1........0
Number of accepted tran steps =             80

Notice from spectre during transient analysis `DifTempo-011_DifTempo', during task `MDLControl'.
    Trapezoidal ringing is detected during tran analysis.
        Please use method=trap for better results and performance.


Maximum value achieved for any signal of each quantity: 
V: V(out) = 1.008 V
I: I(Va:p) = 7.059 uA
If your circuit contains signals of the same quantity that are vastly different in size (such as high voltage circuitry combined with low voltage control circuitry), you should consider specifying global option `bin_relref=yes'.

~~~~~~~~~~~~~~~~~~~~~~~~~~~~~~~~~
Post-Transient Simulation Summary
~~~~~~~~~~~~~~~~~~~~~~~~~~~~~~~~~
   -   To further speed up simulation, consider
          add ++aps on command line
~~~~~~~~~~~~~~~~~~~~~~~~~~~~~~~~~


During simulation, the CPU load for active processors is :
        Spectre  0 (100.0 %)     1 (100.0 %)     2 (51.0 %)      3 (50.3 %)
        Other   
Initial condition solution time: CPU = 335 us, elapsed = 341.892 us.
Intrinsic tran analysis time:    CPU = 9.061 ms, elapsed = 32.8119 ms.
Total time required for tran analysis `DifTempo-011_DifTempo': CPU = 10.569 ms, elapsed = 34.4629 ms.
Time accumulated: CPU = 477.565 ms, elapsed = 1.60051 s.
Peak resident memory used = 64.5 Mbytes.


Notice from spectre during task `MDLControl'.
    25 notices suppressed.


****************************************************************
Transient Analysis `DifTempo-012_DifTempo': time = (0 s -> 4 ns)
****************************************************************
DC simulation time: CPU = 286 us, elapsed = 285.864 us.

Notice from spectre during transient analysis `DifTempo-012_DifTempo', during task `MDLControl'.
    No outputs were found. Loosening output filter criterion to `allpub'.


Opening the PSF file inversor.raw/DifTempo-012_DifTempo.tran.tran ...
Important parameter values:
    start = 0 s
    outputstart = 0 s
    stop = 4 ns
    step = 4 ps
    maxstep = 80 ps
    ic = all
    useprevic = no
    skipdc = no
    reltol = 1e-03
    abstol(V) = 1 uV
    abstol(I) = 1 pA
    temp = 27 C
    tnom = 27 C
    tempeffects = all
    errpreset = moderate
    method = traponly
    lteratio = 3.5
    relref = sigglobal
    cmin = 0 F
    gmin = 1 pS


Output and IC/nodeset summary:
                 save   2       (current)
                 save   3       (voltage)

........9........8........7........6........5

Notice from spectre at time = 2.07146 ns during transient analysis `DifTempo-012_DifTempo', during task `MDLControl'.
    Found trapezoidal ringing on node Vd:p.

........9........8........7........6........5..

Notice from spectre at time = 2.1275 ns during transient analysis `DifTempo-012_DifTempo', during task `MDLControl'.
    Found trapezoidal ringing on node Vd:p.

........9........8........7........6........5........4..

Notice from spectre at time = 2.58945 ns during transient analysis `DifTempo-012_DifTempo', during task `MDLControl'.
    Found trapezoidal ringing on node out.

........9........8........7........6........5........4....

Notice from spectre at time = 2.66945 ns during transient analysis `DifTempo-012_DifTempo', during task `MDLControl'.
    Found trapezoidal ringing on node out.

........9........8........7........6........5........4......

Notice from spectre at time = 2.74945 ns during transient analysis `DifTempo-012_DifTempo', during task `MDLControl'.
    Found trapezoidal ringing on node out.
        Further occurrences of this notice will be suppressed.

........9........8........7........6........5........4........3........2........1........0
Number of accepted tran steps =             71

Notice from spectre during transient analysis `DifTempo-012_DifTempo', during task `MDLControl'.
    Trapezoidal ringing is detected during tran analysis.
        Please use method=trap for better results and performance.


Maximum value achieved for any signal of each quantity: 
V: V(out) = 1.004 V
I: I(Va:p) = 4.204 uA
If your circuit contains signals of the same quantity that are vastly different in size (such as high voltage circuitry combined with low voltage control circuitry), you should consider specifying global option `bin_relref=yes'.

~~~~~~~~~~~~~~~~~~~~~~~~~~~~~~~~~
Post-Transient Simulation Summary
~~~~~~~~~~~~~~~~~~~~~~~~~~~~~~~~~
   -   To further speed up simulation, consider
          add ++aps on command line
~~~~~~~~~~~~~~~~~~~~~~~~~~~~~~~~~


During simulation, the CPU load for active processors is :
        Spectre  0 (100.0 %)     1 (100.0 %)     2 (50.6 %)      3 (49.4 %)
        Other   
Initial condition solution time: CPU = 334 us, elapsed = 337.124 us.
Intrinsic tran analysis time:    CPU = 8.894 ms, elapsed = 33.2682 ms.
Total time required for tran analysis `DifTempo-012_DifTempo': CPU = 10.353 ms, elapsed = 34.7271 ms.
Time accumulated: CPU = 495.381 ms, elapsed = 1.7011 s.
Peak resident memory used = 64.5 Mbytes.


Notice from spectre during task `MDLControl'.
    16 notices suppressed.


****************************************************************
Transient Analysis `DifTempo-013_DifTempo': time = (0 s -> 4 ns)
****************************************************************
DC simulation time: CPU = 283 us, elapsed = 283.957 us.

Notice from spectre during transient analysis `DifTempo-013_DifTempo', during task `MDLControl'.
    No outputs were found. Loosening output filter criterion to `allpub'.


Opening the PSF file inversor.raw/DifTempo-013_DifTempo.tran.tran ...
Important parameter values:
    start = 0 s
    outputstart = 0 s
    stop = 4 ns
    step = 4 ps
    maxstep = 80 ps
    ic = all
    useprevic = no
    skipdc = no
    reltol = 1e-03
    abstol(V) = 1 uV
    abstol(I) = 1 pA
    temp = 27 C
    tnom = 27 C
    tempeffects = all
    errpreset = moderate
    method = traponly
    lteratio = 3.5
    relref = sigglobal
    cmin = 0 F
    gmin = 1 pS


Output and IC/nodeset summary:
                 save   2       (current)
                 save   3       (voltage)

........9........8........7....

Notice from spectre at time = 1.4721 ns during transient analysis `DifTempo-013_DifTempo', during task `MDLControl'.
    Found trapezoidal ringing on node Vd:p.

........9........8........7......

Notice from spectre at time = 1.5521 ns during transient analysis `DifTempo-013_DifTempo', during task `MDLControl'.
    Found trapezoidal ringing on node Vd:p.

........9........8........7........6........5........4....

Notice from spectre at time = 2.65313 ns during transient analysis `DifTempo-013_DifTempo', during task `MDLControl'.
    Found trapezoidal ringing on node Va:p.

........9........8........7........6........5........4......

Notice from spectre at time = 2.73313 ns during transient analysis `DifTempo-013_DifTempo', during task `MDLControl'.
    Found trapezoidal ringing on node Va:p.

........9........8........7........6........5........4.......

Notice from spectre at time = 2.81313 ns during transient analysis `DifTempo-013_DifTempo', during task `MDLControl'.
    Found trapezoidal ringing on node Va:p.
        Further occurrences of this notice will be suppressed.

........9........8........7........6........5........4........3........2........1........0
Number of accepted tran steps =             70

Notice from spectre during transient analysis `DifTempo-013_DifTempo', during task `MDLControl'.
    Trapezoidal ringing is detected during tran analysis.
        Please use method=trap for better results and performance.


Maximum value achieved for any signal of each quantity: 
V: V(out) = 1.002 V
I: I(Va:p) = 2.444 uA
If your circuit contains signals of the same quantity that are vastly different in size (such as high voltage circuitry combined with low voltage control circuitry), you should consider specifying global option `bin_relref=yes'.

~~~~~~~~~~~~~~~~~~~~~~~~~~~~~~~~~
Post-Transient Simulation Summary
~~~~~~~~~~~~~~~~~~~~~~~~~~~~~~~~~
   -   To further speed up simulation, consider
          add ++aps on command line
~~~~~~~~~~~~~~~~~~~~~~~~~~~~~~~~~


During simulation, the CPU load for active processors is :
        Spectre  0 (100.0 %)     1 (100.0 %)     2 (49.7 %)      3 (48.8 %)
        Other   
Initial condition solution time: CPU = 333 us, elapsed = 339.985 us.
Intrinsic tran analysis time:    CPU = 8.658 ms, elapsed = 32.5701 ms.
Total time required for tran analysis `DifTempo-013_DifTempo': CPU = 10.21 ms, elapsed = 34.3211 ms.
Time accumulated: CPU = 512.975 ms, elapsed = 1.80074 s.
Peak resident memory used = 64.5 Mbytes.


Notice from spectre during task `MDLControl'.
    10 notices suppressed.


****************************************************************
Transient Analysis `DifTempo-014_DifTempo': time = (0 s -> 4 ns)
****************************************************************
DC simulation time: CPU = 294 us, elapsed = 293.97 us.

Notice from spectre during transient analysis `DifTempo-014_DifTempo', during task `MDLControl'.
    No outputs were found. Loosening output filter criterion to `allpub'.


Opening the PSF file inversor.raw/DifTempo-014_DifTempo.tran.tran ...
Important parameter values:
    start = 0 s
    outputstart = 0 s
    stop = 4 ns
    step = 4 ps
    maxstep = 80 ps
    ic = all
    useprevic = no
    skipdc = no
    reltol = 1e-03
    abstol(V) = 1 uV
    abstol(I) = 1 pA
    temp = 27 C
    tnom = 27 C
    tempeffects = all
    errpreset = moderate
    method = traponly
    lteratio = 3.5
    relref = sigglobal
    cmin = 0 F
    gmin = 1 pS


Output and IC/nodeset summary:
                 save   2       (current)
                 save   3       (voltage)

........9........8.......

Notice from spectre at time = 1.12694 ns during transient analysis `DifTempo-014_DifTempo', during task `MDLControl'.
    Found trapezoidal ringing on node Vd:p.
Notice from spectre at time = 1.18307 ns during transient analysis `DifTempo-014_DifTempo', during task `MDLControl'.
    Found trapezoidal ringing on node Vd:p.

........9........8........7

Notice from spectre at time = 1.26307 ns during transient analysis `DifTempo-014_DifTempo', during task `MDLControl'.
    Found trapezoidal ringing on node Vd:p.

........9........8........7.

Notice from spectre at time = 1.34307 ns during transient analysis `DifTempo-014_DifTempo', during task `MDLControl'.
    Found trapezoidal ringing on node Vd:p.

........9........8........7...

Notice from spectre at time = 1.42307 ns during transient analysis `DifTempo-014_DifTempo', during task `MDLControl'.
    Found trapezoidal ringing on node Vd:p.
        Further occurrences of this notice will be suppressed.

........9........8........7........6........5........4........3........2........1........0
Number of accepted tran steps =             86

Notice from spectre during transient analysis `DifTempo-014_DifTempo', during task `MDLControl'.
    Trapezoidal ringing is detected during tran analysis.
        Please use method=trap for better results and performance.


Maximum value achieved for any signal of each quantity: 
V: V(out) = 1.071 V
I: I(Va:p) = 52.09 uA
If your circuit contains signals of the same quantity that are vastly different in size (such as high voltage circuitry combined with low voltage control circuitry), you should consider specifying global option `bin_relref=yes'.

~~~~~~~~~~~~~~~~~~~~~~~~~~~~~~~~~
Post-Transient Simulation Summary
~~~~~~~~~~~~~~~~~~~~~~~~~~~~~~~~~
   -   To further speed up simulation, consider
          add ++aps on command line
~~~~~~~~~~~~~~~~~~~~~~~~~~~~~~~~~


During simulation, the CPU load for active processors is :
        Spectre  0 (99.5 %)      1 (100.0 %)     2 (47.3 %)      3 (47.9 %)
        Other   
Initial condition solution time: CPU = 346 us, elapsed = 352.859 us.
Intrinsic tran analysis time:    CPU = 8.243 ms, elapsed = 31.903 ms.
Total time required for tran analysis `DifTempo-014_DifTempo': CPU = 9.775 ms, elapsed = 33.5581 ms.
Time accumulated: CPU = 531.14 ms, elapsed = 1.96152 s.
Peak resident memory used = 64.5 Mbytes.


Notice from spectre during task `MDLControl'.
    33 notices suppressed.


****************************************************************
Transient Analysis `DifTempo-015_DifTempo': time = (0 s -> 4 ns)
****************************************************************
DC simulation time: CPU = 278 us, elapsed = 277.996 us.

Notice from spectre during transient analysis `DifTempo-015_DifTempo', during task `MDLControl'.
    No outputs were found. Loosening output filter criterion to `allpub'.


Opening the PSF file inversor.raw/DifTempo-015_DifTempo.tran.tran ...
Important parameter values:
    start = 0 s
    outputstart = 0 s
    stop = 4 ns
    step = 4 ps
    maxstep = 80 ps
    ic = all
    useprevic = no
    skipdc = no
    reltol = 1e-03
    abstol(V) = 1 uV
    abstol(I) = 1 pA
    temp = 27 C
    tnom = 27 C
    tempeffects = all
    errpreset = moderate
    method = traponly
    lteratio = 3.5
    relref = sigglobal
    cmin = 0 F
    gmin = 1 pS


Output and IC/nodeset summary:
                 save   2       (current)
                 save   3       (voltage)

........9........8........7...

Notice from spectre at time = 1.41374 ns during transient analysis `DifTempo-015_DifTempo', during task `MDLControl'.
    Found trapezoidal ringing on node Va:p.

........9........8........7.....

Notice from spectre at time = 1.49374 ns during transient analysis `DifTempo-015_DifTempo', during task `MDLControl'.
    Found trapezoidal ringing on node Va:p.

........9........8........7.......

Notice from spectre at time = 1.57374 ns during transient analysis `DifTempo-015_DifTempo', during task `MDLControl'.
    Found trapezoidal ringing on node Va:p.

........9........8........7........

Notice from spectre at time = 1.65374 ns during transient analysis `DifTempo-015_DifTempo', during task `MDLControl'.
    Found trapezoidal ringing on node Va:p.

........9........8........7........6.

Notice from spectre at time = 1.73374 ns during transient analysis `DifTempo-015_DifTempo', during task `MDLControl'.
    Found trapezoidal ringing on node Va:p.
        Further occurrences of this notice will be suppressed.

........9........8........7........6........5........4........3........2........1........0
Number of accepted tran steps =             86

Notice from spectre during transient analysis `DifTempo-015_DifTempo', during task `MDLControl'.
    Trapezoidal ringing is detected during tran analysis.
        Please use method=trap for better results and performance.


Maximum value achieved for any signal of each quantity: 
V: V(out) = 1.049 V
I: I(Va:p) = 31.54 uA
If your circuit contains signals of the same quantity that are vastly different in size (such as high voltage circuitry combined with low voltage control circuitry), you should consider specifying global option `bin_relref=yes'.

~~~~~~~~~~~~~~~~~~~~~~~~~~~~~~~~~
Post-Transient Simulation Summary
~~~~~~~~~~~~~~~~~~~~~~~~~~~~~~~~~
   -   To further speed up simulation, consider
          add ++aps on command line
~~~~~~~~~~~~~~~~~~~~~~~~~~~~~~~~~


During simulation, the CPU load for active processors is :
        Spectre  0 (95.0 %)      1 (100.0 %)     2 (46.7 %)      3 (51.0 %)
        Other   
Initial condition solution time: CPU = 328 us, elapsed = 334.024 us.
Intrinsic tran analysis time:    CPU = 8.94 ms, elapsed = 32.7041 ms.
Total time required for tran analysis `DifTempo-015_DifTempo': CPU = 10.463 ms, elapsed = 34.395 ms.
Time accumulated: CPU = 548.647 ms, elapsed = 2.07541 s.
Peak resident memory used = 64.5 Mbytes.


Notice from spectre during task `MDLControl'.
    29 notices suppressed.


****************************************************************
Transient Analysis `DifTempo-016_DifTempo': time = (0 s -> 4 ns)
****************************************************************
DC simulation time: CPU = 292 us, elapsed = 293.016 us.

Notice from spectre during transient analysis `DifTempo-016_DifTempo', during task `MDLControl'.
    No outputs were found. Loosening output filter criterion to `allpub'.


Opening the PSF file inversor.raw/DifTempo-016_DifTempo.tran.tran ...
Important parameter values:
    start = 0 s
    outputstart = 0 s
    stop = 4 ns
    step = 4 ps
    maxstep = 80 ps
    ic = all
    useprevic = no
    skipdc = no
    reltol = 1e-03
    abstol(V) = 1 uV
    abstol(I) = 1 pA
    temp = 27 C
    tnom = 27 C
    tempeffects = all
    errpreset = moderate
    method = traponly
    lteratio = 3.5
    relref = sigglobal
    cmin = 0 F
    gmin = 1 pS


Output and IC/nodeset summary:
                 save   2       (current)
                 save   3       (voltage)

........9........8........7..

Notice from spectre at time = 1.38102 ns during transient analysis `DifTempo-016_DifTempo', during task `MDLControl'.
    Found trapezoidal ringing on node Va:p.

........9........8........7....

Notice from spectre at time = 1.46102 ns during transient analysis `DifTempo-016_DifTempo', during task `MDLControl'.
    Found trapezoidal ringing on node Va:p.

........9........8........7......

Notice from spectre at time = 1.54102 ns during transient analysis `DifTempo-016_DifTempo', during task `MDLControl'.
    Found trapezoidal ringing on node Va:p.

........9........8........7........

Notice from spectre at time = 1.62102 ns during transient analysis `DifTempo-016_DifTempo', during task `MDLControl'.
    Found trapezoidal ringing on node Va:p.

........9........8........7........6

Notice from spectre at time = 1.70102 ns during transient analysis `DifTempo-016_DifTempo', during task `MDLControl'.
    Found trapezoidal ringing on node Va:p.
        Further occurrences of this notice will be suppressed.

........9........8........7........6........5........4........3........2........1........0
Number of accepted tran steps =             84

Notice from spectre during transient analysis `DifTempo-016_DifTempo', during task `MDLControl'.
    Trapezoidal ringing is detected during tran analysis.
        Please use method=trap for better results and performance.


Maximum value achieved for any signal of each quantity: 
V: V(out) = 1.032 V
I: I(Va:p) = 20.61 uA
If your circuit contains signals of the same quantity that are vastly different in size (such as high voltage circuitry combined with low voltage control circuitry), you should consider specifying global option `bin_relref=yes'.

~~~~~~~~~~~~~~~~~~~~~~~~~~~~~~~~~
Post-Transient Simulation Summary
~~~~~~~~~~~~~~~~~~~~~~~~~~~~~~~~~
   -   To further speed up simulation, consider
          add ++aps on command line
~~~~~~~~~~~~~~~~~~~~~~~~~~~~~~~~~


During simulation, the CPU load for active processors is :
        Spectre  0 (91.5 %)      1 (100.0 %)     2 (46.4 %)      3 (53.6 %)
        Other   
Initial condition solution time: CPU = 347 us, elapsed = 360.966 us.
Intrinsic tran analysis time:    CPU = 9.404 ms, elapsed = 39.7539 ms.
Total time required for tran analysis `DifTempo-016_DifTempo': CPU = 10.937 ms, elapsed = 41.4491 ms.
Time accumulated: CPU = 566.571 ms, elapsed = 2.19072 s.
Peak resident memory used = 64.5 Mbytes.


Notice from spectre during task `MDLControl'.
    29 notices suppressed.


****************************************************************
Transient Analysis `DifTempo-017_DifTempo': time = (0 s -> 4 ns)
****************************************************************
DC simulation time: CPU = 269 us, elapsed = 269.89 us.

Notice from spectre during transient analysis `DifTempo-017_DifTempo', during task `MDLControl'.
    No outputs were found. Loosening output filter criterion to `allpub'.


Opening the PSF file inversor.raw/DifTempo-017_DifTempo.tran.tran ...
Important parameter values:
    start = 0 s
    outputstart = 0 s
    stop = 4 ns
    step = 4 ps
    maxstep = 80 ps
    ic = all
    useprevic = no
    skipdc = no
    reltol = 1e-03
    abstol(V) = 1 uV
    abstol(I) = 1 pA
    temp = 27 C
    tnom = 27 C
    tempeffects = all
    errpreset = moderate
    method = traponly
    lteratio = 3.5
    relref = sigglobal
    cmin = 0 F
    gmin = 1 pS


Output and IC/nodeset summary:
                 save   2       (current)
                 save   3       (voltage)

........9........8........7........6

Notice from spectre at time = 1.69687 ns during transient analysis `DifTempo-017_DifTempo', during task `MDLControl'.
    Found trapezoidal ringing on node Va:p.

........9........8........7........6..

Notice from spectre at time = 1.77687 ns during transient analysis `DifTempo-017_DifTempo', during task `MDLControl'.
    Found trapezoidal ringing on node Va:p.

........9........8........7........6....

Notice from spectre at time = 1.85687 ns during transient analysis `DifTempo-017_DifTempo', during task `MDLControl'.
    Found trapezoidal ringing on node Va:p.

........9........8........7........6......

Notice from spectre at time = 1.93687 ns during transient analysis `DifTempo-017_DifTempo', during task `MDLControl'.
    Found trapezoidal ringing on node Va:p.

........9........8........7........6........

Notice from spectre at time = 2.01687 ns during transient analysis `DifTempo-017_DifTempo', during task `MDLControl'.
    Found trapezoidal ringing on node Va:p.
        Further occurrences of this notice will be suppressed.

........9........8........7........6........5........4........3........2........1........0
Number of accepted tran steps =             87

Notice from spectre during transient analysis `DifTempo-017_DifTempo', during task `MDLControl'.
    Trapezoidal ringing is detected during tran analysis.
        Please use method=trap for better results and performance.


Maximum value achieved for any signal of each quantity: 
V: V(out) = 1.017 V
I: I(Va:p) = 12.23 uA
If your circuit contains signals of the same quantity that are vastly different in size (such as high voltage circuitry combined with low voltage control circuitry), you should consider specifying global option `bin_relref=yes'.

~~~~~~~~~~~~~~~~~~~~~~~~~~~~~~~~~
Post-Transient Simulation Summary
~~~~~~~~~~~~~~~~~~~~~~~~~~~~~~~~~
   -   To further speed up simulation, consider
          add ++aps on command line
~~~~~~~~~~~~~~~~~~~~~~~~~~~~~~~~~


During simulation, the CPU load for active processors is :
        Spectre  0 (91.0 %)      1 (100.0 %)     2 (45.9 %)      3 (52.5 %)
        Other   
Initial condition solution time: CPU = 309 us, elapsed = 310.898 us.
Intrinsic tran analysis time:    CPU = 9.106 ms, elapsed = 33.1688 ms.
Total time required for tran analysis `DifTempo-017_DifTempo': CPU = 10.552 ms, elapsed = 34.627 ms.
Time accumulated: CPU = 584.93 ms, elapsed = 2.30125 s.
Peak resident memory used = 64.5 Mbytes.


Notice from spectre during task `MDLControl'.
    25 notices suppressed.


****************************************************************
Transient Analysis `DifTempo-018_DifTempo': time = (0 s -> 4 ns)
****************************************************************
DC simulation time: CPU = 282 us, elapsed = 282.049 us.

Notice from spectre during transient analysis `DifTempo-018_DifTempo', during task `MDLControl'.
    No outputs were found. Loosening output filter criterion to `allpub'.


Opening the PSF file inversor.raw/DifTempo-018_DifTempo.tran.tran ...
Important parameter values:
    start = 0 s
    outputstart = 0 s
    stop = 4 ns
    step = 4 ps
    maxstep = 80 ps
    ic = all
    useprevic = no
    skipdc = no
    reltol = 1e-03
    abstol(V) = 1 uV
    abstol(I) = 1 pA
    temp = 27 C
    tnom = 27 C
    tempeffects = all
    errpreset = moderate
    method = traponly
    lteratio = 3.5
    relref = sigglobal
    cmin = 0 F
    gmin = 1 pS


Output and IC/nodeset summary:
                 save   2       (current)
                 save   3       (voltage)

........9........8........7........

Notice from spectre at time = 1.59375 ns during transient analysis `DifTempo-018_DifTempo', during task `MDLControl'.
    Found trapezoidal ringing on node Va:p.

........9........8........7........6.......

Notice from spectre at time = 1.99646 ns during transient analysis `DifTempo-018_DifTempo', during task `MDLControl'.
    Found trapezoidal ringing on node out.

........9........8........7........6........5

Notice from spectre at time = 2.07646 ns during transient analysis `DifTempo-018_DifTempo', during task `MDLControl'.
    Found trapezoidal ringing on node out.

........9........8........7........6........5..

Notice from spectre at time = 2.15646 ns during transient analysis `DifTempo-018_DifTempo', during task `MDLControl'.
    Found trapezoidal ringing on node out.

........9........8........7........6........5....

Notice from spectre at time = 2.23646 ns during transient analysis `DifTempo-018_DifTempo', during task `MDLControl'.
    Found trapezoidal ringing on node out.
        Further occurrences of this notice will be suppressed.

........9........8........7........6........5........4........3........2........1........0
Number of accepted tran steps =             79

Notice from spectre during transient analysis `DifTempo-018_DifTempo', during task `MDLControl'.
    Trapezoidal ringing is detected during tran analysis.
        Please use method=trap for better results and performance.


Maximum value achieved for any signal of each quantity: 
V: V(out) = 1.008 V
I: I(Va:p) = 7.211 uA
If your circuit contains signals of the same quantity that are vastly different in size (such as high voltage circuitry combined with low voltage control circuitry), you should consider specifying global option `bin_relref=yes'.

~~~~~~~~~~~~~~~~~~~~~~~~~~~~~~~~~
Post-Transient Simulation Summary
~~~~~~~~~~~~~~~~~~~~~~~~~~~~~~~~~
   -   To further speed up simulation, consider
          add ++aps on command line
~~~~~~~~~~~~~~~~~~~~~~~~~~~~~~~~~


During simulation, the CPU load for active processors is :
        Spectre  0 (88.8 %)      1 (100.0 %)     2 (47.8 %)      3 (52.4 %)
        Other   
Initial condition solution time: CPU = 334 us, elapsed = 342.131 us.
Intrinsic tran analysis time:    CPU = 8.931 ms, elapsed = 32.8131 ms.
Total time required for tran analysis `DifTempo-018_DifTempo': CPU = 10.453 ms, elapsed = 34.4529 ms.
Time accumulated: CPU = 602.494 ms, elapsed = 2.40927 s.
Peak resident memory used = 64.6 Mbytes.


Notice from spectre during task `MDLControl'.
    23 notices suppressed.


****************************************************************
Transient Analysis `DifTempo-019_DifTempo': time = (0 s -> 4 ns)
****************************************************************
DC simulation time: CPU = 283 us, elapsed = 283.003 us.

Notice from spectre during transient analysis `DifTempo-019_DifTempo', during task `MDLControl'.
    No outputs were found. Loosening output filter criterion to `allpub'.


Opening the PSF file inversor.raw/DifTempo-019_DifTempo.tran.tran ...
Important parameter values:
    start = 0 s
    outputstart = 0 s
    stop = 4 ns
    step = 4 ps
    maxstep = 80 ps
    ic = all
    useprevic = no
    skipdc = no
    reltol = 1e-03
    abstol(V) = 1 uV
    abstol(I) = 1 pA
    temp = 27 C
    tnom = 27 C
    tempeffects = all
    errpreset = moderate
    method = traponly
    lteratio = 3.5
    relref = sigglobal
    cmin = 0 F
    gmin = 1 pS


Output and IC/nodeset summary:
                 save   2       (current)
                 save   3       (voltage)

........9........8........7........6........

Notice from spectre at time = 2.02992 ns during transient analysis `DifTempo-019_DifTempo', during task `MDLControl'.
    Found trapezoidal ringing on node Va:p.

........9........8........7........6........5.

Notice from spectre at time = 2.10992 ns during transient analysis `DifTempo-019_DifTempo', during task `MDLControl'.
    Found trapezoidal ringing on node Va:p.

........9........8........7........6........5..

Notice from spectre at time = 2.1275 ns during transient analysis `DifTempo-019_DifTempo', during task `MDLControl'.
    Found trapezoidal ringing on node Va:p.

........9........8........7........6........5........4.

Notice from spectre at time = 2.51974 ns during transient analysis `DifTempo-019_DifTempo', during task `MDLControl'.
    Found trapezoidal ringing on node out.

........9........8........7........6........5........4...

Notice from spectre at time = 2.59974 ns during transient analysis `DifTempo-019_DifTempo', during task `MDLControl'.
    Found trapezoidal ringing on node out.
        Further occurrences of this notice will be suppressed.

........9........8........7........6........5........4........3........2........1........0
Number of accepted tran steps =             75

Notice from spectre during transient analysis `DifTempo-019_DifTempo', during task `MDLControl'.
    Trapezoidal ringing is detected during tran analysis.
        Please use method=trap for better results and performance.


Maximum value achieved for any signal of each quantity: 
V: V(out) = 1.004 V
I: I(Va:p) = 4.101 uA
If your circuit contains signals of the same quantity that are vastly different in size (such as high voltage circuitry combined with low voltage control circuitry), you should consider specifying global option `bin_relref=yes'.

~~~~~~~~~~~~~~~~~~~~~~~~~~~~~~~~~
Post-Transient Simulation Summary
~~~~~~~~~~~~~~~~~~~~~~~~~~~~~~~~~
   -   To further speed up simulation, consider
          add ++aps on command line
~~~~~~~~~~~~~~~~~~~~~~~~~~~~~~~~~


During simulation, the CPU load for active processors is :
        Spectre  0 (88.1 %)      1 (100.0 %)     2 (48.6 %)      3 (52.5 %)
        Other   
Initial condition solution time: CPU = 326 us, elapsed = 326.872 us.
Intrinsic tran analysis time:    CPU = 9.038 ms, elapsed = 33.304 ms.
Total time required for tran analysis `DifTempo-019_DifTempo': CPU = 10.516 ms, elapsed = 34.781 ms.
Time accumulated: CPU = 620.122 ms, elapsed = 2.51793 s.
Peak resident memory used = 64.6 Mbytes.


Notice from spectre during task `MDLControl'.
    18 notices suppressed.


****************************************************************
Transient Analysis `DifTempo-020_DifTempo': time = (0 s -> 4 ns)
****************************************************************
DC simulation time: CPU = 285 us, elapsed = 285.864 us.

Notice from spectre during transient analysis `DifTempo-020_DifTempo', during task `MDLControl'.
    No outputs were found. Loosening output filter criterion to `allpub'.


Opening the PSF file inversor.raw/DifTempo-020_DifTempo.tran.tran ...
Important parameter values:
    start = 0 s
    outputstart = 0 s
    stop = 4 ns
    step = 4 ps
    maxstep = 80 ps
    ic = all
    useprevic = no
    skipdc = no
    reltol = 1e-03
    abstol(V) = 1 uV
    abstol(I) = 1 pA
    temp = 27 C
    tnom = 27 C
    tempeffects = all
    errpreset = moderate
    method = traponly
    lteratio = 3.5
    relref = sigglobal
    cmin = 0 F
    gmin = 1 pS


Output and IC/nodeset summary:
                 save   2       (current)
                 save   3       (voltage)

........9........8........7....

Notice from spectre at time = 1.47189 ns during transient analysis `DifTempo-020_DifTempo', during task `MDLControl'.
    Found trapezoidal ringing on node Vd:p.

........9........8........7......

Notice from spectre at time = 1.55189 ns during transient analysis `DifTempo-020_DifTempo', during task `MDLControl'.
    Found trapezoidal ringing on node Vd:p.

........9........8........7........6........5........4.....

Notice from spectre at time = 2.69608 ns during transient analysis `DifTempo-020_DifTempo', during task `MDLControl'.
    Found trapezoidal ringing on node Va:p.

........9........8........7........6........5........4.......

Notice from spectre at time = 2.77608 ns during transient analysis `DifTempo-020_DifTempo', during task `MDLControl'.
    Found trapezoidal ringing on node Va:p.

........9........8........7........6........5........4........

Notice from spectre at time = 2.85608 ns during transient analysis `DifTempo-020_DifTempo', during task `MDLControl'.
    Found trapezoidal ringing on node Va:p.
        Further occurrences of this notice will be suppressed.

........9........8........7........6........5........4........3........2........1........0
Number of accepted tran steps =             69

Notice from spectre during transient analysis `DifTempo-020_DifTempo', during task `MDLControl'.
    Trapezoidal ringing is detected during tran analysis.
        Please use method=trap for better results and performance.


Maximum value achieved for any signal of each quantity: 
V: V(out) = 1.002 V
I: I(Va:p) = 2.353 uA
If your circuit contains signals of the same quantity that are vastly different in size (such as high voltage circuitry combined with low voltage control circuitry), you should consider specifying global option `bin_relref=yes'.

~~~~~~~~~~~~~~~~~~~~~~~~~~~~~~~~~
Post-Transient Simulation Summary
~~~~~~~~~~~~~~~~~~~~~~~~~~~~~~~~~
   -   To further speed up simulation, consider
          add ++aps on command line
~~~~~~~~~~~~~~~~~~~~~~~~~~~~~~~~~


During simulation, the CPU load for active processors is :
        Spectre  0 (85.5 %)      1 (100.0 %)     2 (50.8 %)      3 (51.8 %)
        Other   
Initial condition solution time: CPU = 336 us, elapsed = 342.846 us.
Intrinsic tran analysis time:    CPU = 10.066 ms, elapsed = 38.5599 ms.
Total time required for tran analysis `DifTempo-020_DifTempo': CPU = 11.58 ms, elapsed = 40.2009 ms.
Time accumulated: CPU = 638.856 ms, elapsed = 2.62429 s.
Peak resident memory used = 64.6 Mbytes.


Notice from spectre during task `MDLControl'.
    11 notices suppressed.


****************************************************************
Transient Analysis `DifTempo-021_DifTempo': time = (0 s -> 4 ns)
****************************************************************
DC simulation time: CPU = 283 us, elapsed = 284.91 us.

Notice from spectre during transient analysis `DifTempo-021_DifTempo', during task `MDLControl'.
    No outputs were found. Loosening output filter criterion to `allpub'.


Opening the PSF file inversor.raw/DifTempo-021_DifTempo.tran.tran ...
Important parameter values:
    start = 0 s
    outputstart = 0 s
    stop = 4 ns
    step = 4 ps
    maxstep = 80 ps
    ic = all
    useprevic = no
    skipdc = no
    reltol = 1e-03
    abstol(V) = 1 uV
    abstol(I) = 1 pA
    temp = 27 C
    tnom = 27 C
    tempeffects = all
    errpreset = moderate
    method = traponly
    lteratio = 3.5
    relref = sigglobal
    cmin = 0 F
    gmin = 1 pS


Output and IC/nodeset summary:
                 save   2       (current)
                 save   3       (voltage)

........9........8.......

Notice from spectre at time = 1.16662 ns during transient analysis `DifTempo-021_DifTempo', during task `MDLControl'.
[...]
    Found trapezoidal ringing on node Va:p.
        Further occurrences of this notice will be suppressed.

........9........8........7........6........5........4........3........2........1........0
Number of accepted tran steps =             79

Notice from spectre during transient analysis `DifTempo-043_DifTempo', during task `MDLControl'.
    Trapezoidal ringing is detected during tran analysis.
        Please use method=trap for better results and performance.


Maximum value achieved for any signal of each quantity: 
V: V(out) = 1.014 V
I: I(Va:p) = 17.24 uA
If your circuit contains signals of the same quantity that are vastly different in size (such as high voltage circuitry combined with low voltage control circuitry), you should consider specifying global option `bin_relref=yes'.

~~~~~~~~~~~~~~~~~~~~~~~~~~~~~~~~~
Post-Transient Simulation Summary
~~~~~~~~~~~~~~~~~~~~~~~~~~~~~~~~~
   -   To further speed up simulation, consider
          add ++aps on command line
~~~~~~~~~~~~~~~~~~~~~~~~~~~~~~~~~


During simulation, the CPU load for active processors is :
        Spectre  0 (62.2 %)      1 (100.0 %)     2 (76.0 %)      3 (43.7 %)
        Other   
Initial condition solution time: CPU = 306 us, elapsed = 306.845 us.
Intrinsic tran analysis time:    CPU = 8.275 ms, elapsed = 31.4951 ms.
Total time required for tran analysis `DifTempo-043_DifTempo': CPU = 9.697 ms, elapsed = 32.912 ms.
Time accumulated: CPU = 1.0575 s, elapsed = 5.57813 s.
Peak resident memory used = 64.8 Mbytes.


Notice from spectre during task `MDLControl'.
    27 notices suppressed.


****************************************************************
Transient Analysis `DifTempo-044_DifTempo': time = (0 s -> 4 ns)
****************************************************************
DC simulation time: CPU = 268 us, elapsed = 267.982 us.

Notice from spectre during transient analysis `DifTempo-044_DifTempo', during task `MDLControl'.
    No outputs were found. Loosening output filter criterion to `allpub'.


Opening the PSF file inversor.raw/DifTempo-044_DifTempo.tran.tran ...
Important parameter values:
    start = 0 s
    outputstart = 0 s
    stop = 4 ns
    step = 4 ps
    maxstep = 80 ps
    ic = all
    useprevic = no
    skipdc = no
    reltol = 1e-03
    abstol(V) = 1 uV
    abstol(I) = 1 pA
    temp = 27 C
    tnom = 27 C
    tempeffects = all
    errpreset = moderate
    method = traponly
    lteratio = 3.5
    relref = sigglobal
    cmin = 0 F
    gmin = 1 pS


Output and IC/nodeset summary:
                 save   2       (current)
                 save   3       (voltage)

........9........8........7........6

Notice from spectre at time = 1.68757 ns during transient analysis `DifTempo-044_DifTempo', during task `MDLControl'.
    Found trapezoidal ringing on node Va:p.

........9........8........7........6..

Notice from spectre at time = 1.76757 ns during transient analysis `DifTempo-044_DifTempo', during task `MDLControl'.
    Found trapezoidal ringing on node Va:p.

........9........8........7........6....

Notice from spectre at time = 1.84757 ns during transient analysis `DifTempo-044_DifTempo', during task `MDLControl'.
    Found trapezoidal ringing on node Va:p.

........9........8........7........6......

Notice from spectre at time = 1.92757 ns during transient analysis `DifTempo-044_DifTempo', during task `MDLControl'.
    Found trapezoidal ringing on node Va:p.

........9........8........7........6.......

Notice from spectre at time = 2.00757 ns during transient analysis `DifTempo-044_DifTempo', during task `MDLControl'.
    Found trapezoidal ringing on node Va:p.
        Further occurrences of this notice will be suppressed.

........9........8........7........6........5........4........3........2........1........0
Number of accepted tran steps =             78

Notice from spectre during transient analysis `DifTempo-044_DifTempo', during task `MDLControl'.
    Trapezoidal ringing is detected during tran analysis.
        Please use method=trap for better results and performance.


Maximum value achieved for any signal of each quantity: 
V: V(out) = 1.011 V
I: I(Va:p) = 11.42 uA
If your circuit contains signals of the same quantity that are vastly different in size (such as high voltage circuitry combined with low voltage control circuitry), you should consider specifying global option `bin_relref=yes'.

~~~~~~~~~~~~~~~~~~~~~~~~~~~~~~~~~
Post-Transient Simulation Summary
~~~~~~~~~~~~~~~~~~~~~~~~~~~~~~~~~
   -   To further speed up simulation, consider
          add ++aps on command line
~~~~~~~~~~~~~~~~~~~~~~~~~~~~~~~~~


During simulation, the CPU load for active processors is :
        Spectre  0 (61.8 %)      1 (100.0 %)     2 (76.5 %)      3 (43.5 %)
        Other   
Initial condition solution time: CPU = 317 us, elapsed = 317.812 us.
Intrinsic tran analysis time:    CPU = 8.822 ms, elapsed = 33.3569 ms.
Total time required for tran analysis `DifTempo-044_DifTempo': CPU = 10.238 ms, elapsed = 34.776 ms.
Time accumulated: CPU = 1.07522 s, elapsed = 5.68729 s.
Peak resident memory used = 64.8 Mbytes.


Notice from spectre during task `MDLControl'.
    25 notices suppressed.


****************************************************************
Transient Analysis `DifTempo-045_DifTempo': time = (0 s -> 4 ns)
****************************************************************
DC simulation time: CPU = 288 us, elapsed = 288.963 us.

Notice from spectre during transient analysis `DifTempo-045_DifTempo', during task `MDLControl'.
    No outputs were found. Loosening output filter criterion to `allpub'.


Opening the PSF file inversor.raw/DifTempo-045_DifTempo.tran.tran ...
Important parameter values:
    start = 0 s
    outputstart = 0 s
    stop = 4 ns
    step = 4 ps
    maxstep = 80 ps
    ic = all
    useprevic = no
    skipdc = no
    reltol = 1e-03
    abstol(V) = 1 uV
    abstol(I) = 1 pA
    temp = 27 C
    tnom = 27 C
    tempeffects = all
    errpreset = moderate
    method = traponly
    lteratio = 3.5
    relref = sigglobal
    cmin = 0 F
    gmin = 1 pS


Output and IC/nodeset summary:
                 save   2       (current)
                 save   3       (voltage)

........9........8........7........6...

Notice from spectre at time = 1.80239 ns during transient analysis `DifTempo-045_DifTempo', during task `MDLControl'.
    Found trapezoidal ringing on node Va:p.

........9........8........7........6.....

Notice from spectre at time = 1.88239 ns during transient analysis `DifTempo-045_DifTempo', during task `MDLControl'.
    Found trapezoidal ringing on node Va:p.

........9........8........7........6......

Notice from spectre at time = 1.96239 ns during transient analysis `DifTempo-045_DifTempo', during task `MDLControl'.
    Found trapezoidal ringing on node Va:p.

........9........8........7........6........

Notice from spectre at time = 2.04239 ns during transient analysis `DifTempo-045_DifTempo', during task `MDLControl'.
    Found trapezoidal ringing on node Va:p.

........9........8........7........6........5.

Notice from spectre at time = 2.12239 ns during transient analysis `DifTempo-045_DifTempo', during task `MDLControl'.
    Found trapezoidal ringing on node Va:p.
        Further occurrences of this notice will be suppressed.

........9........8........7........6........5........4........3........2........1........0
Number of accepted tran steps =             78

Notice from spectre during transient analysis `DifTempo-045_DifTempo', during task `MDLControl'.
    Trapezoidal ringing is detected during tran analysis.
        Please use method=trap for better results and performance.


Maximum value achieved for any signal of each quantity: 
V: V(out) = 1.008 V
I: I(Va:p) = 6.901 uA
If your circuit contains signals of the same quantity that are vastly different in size (such as high voltage circuitry combined with low voltage control circuitry), you should consider specifying global option `bin_relref=yes'.

~~~~~~~~~~~~~~~~~~~~~~~~~~~~~~~~~
Post-Transient Simulation Summary
~~~~~~~~~~~~~~~~~~~~~~~~~~~~~~~~~
   -   To further speed up simulation, consider
          add ++aps on command line
~~~~~~~~~~~~~~~~~~~~~~~~~~~~~~~~~


During simulation, the CPU load for active processors is :
        Spectre  0 (61.3 %)      1 (100.0 %)     2 (76.9 %)      3 (43.1 %)
        Other   
Initial condition solution time: CPU = 331 us, elapsed = 333.071 us.
Intrinsic tran analysis time:    CPU = 9.093 ms, elapsed = 41.0502 ms.
Total time required for tran analysis `DifTempo-045_DifTempo': CPU = 10.56 ms, elapsed = 42.5179 ms.
Time accumulated: CPU = 1.09301 s, elapsed = 5.80317 s.
Peak resident memory used = 64.8 Mbytes.


Notice from spectre during task `MDLControl'.
    24 notices suppressed.


****************************************************************
Transient Analysis `DifTempo-046_DifTempo': time = (0 s -> 4 ns)
****************************************************************
DC simulation time: CPU = 286 us, elapsed = 288.01 us.

Notice from spectre during transient analysis `DifTempo-046_DifTempo', during task `MDLControl'.
    No outputs were found. Loosening output filter criterion to `allpub'.


Opening the PSF file inversor.raw/DifTempo-046_DifTempo.tran.tran ...
Important parameter values:
    start = 0 s
    outputstart = 0 s
    stop = 4 ns
    step = 4 ps
    maxstep = 80 ps
    ic = all
    useprevic = no
    skipdc = no
    reltol = 1e-03
    abstol(V) = 1 uV
    abstol(I) = 1 pA
    temp = 27 C
    tnom = 27 C
    tempeffects = all
    errpreset = moderate
    method = traponly
    lteratio = 3.5
    relref = sigglobal
    cmin = 0 F
    gmin = 1 pS


Output and IC/nodeset summary:
                 save   2       (current)
                 save   3       (voltage)

........9........8........7........6.......

Notice from spectre at time = 1.97505 ns during transient analysis `DifTempo-046_DifTempo', during task `MDLControl'.
    Found trapezoidal ringing on node Va:p.

........9........8........7........6........

Notice from spectre at time = 2.05505 ns during transient analysis `DifTempo-046_DifTempo', during task `MDLControl'.
    Found trapezoidal ringing on node Va:p.

........9........8........7........6........5.

Notice from spectre at time = 2.13505 ns during transient analysis `DifTempo-046_DifTempo', during task `MDLControl'.
    Found trapezoidal ringing on node Va:p.

........9........8........7........6........5...

Notice from spectre at time = 2.21505 ns during transient analysis `DifTempo-046_DifTempo', during task `MDLControl'.
    Found trapezoidal ringing on node Va:p.

........9........8........7........6........5.....

Notice from spectre at time = 2.29505 ns during transient analysis `DifTempo-046_DifTempo', during task `MDLControl'.
    Found trapezoidal ringing on node Va:p.
        Further occurrences of this notice will be suppressed.

........9........8........7........6........5........4........3........2........1........0
Number of accepted tran steps =             70

Notice from spectre during transient analysis `DifTempo-046_DifTempo', during task `MDLControl'.
    Trapezoidal ringing is detected during tran analysis.
        Please use method=trap for better results and performance.


Maximum value achieved for any signal of each quantity: 
V: V(out) = 1.005 V
I: I(Va:p) = 4.473 uA
If your circuit contains signals of the same quantity that are vastly different in size (such as high voltage circuitry combined with low voltage control circuitry), you should consider specifying global option `bin_relref=yes'.

~~~~~~~~~~~~~~~~~~~~~~~~~~~~~~~~~
Post-Transient Simulation Summary
~~~~~~~~~~~~~~~~~~~~~~~~~~~~~~~~~
   -   To further speed up simulation, consider
          add ++aps on command line
~~~~~~~~~~~~~~~~~~~~~~~~~~~~~~~~~


During simulation, the CPU load for active processors is :
        Spectre  0 (60.7 %)      1 (100.0 %)     2 (77.4 %)      3 (42.7 %)
        Other   
Initial condition solution time: CPU = 341 us, elapsed = 347.137 us.
Intrinsic tran analysis time:    CPU = 8.246 ms, elapsed = 32.0411 ms.
Total time required for tran analysis `DifTempo-046_DifTempo': CPU = 9.784 ms, elapsed = 33.778 ms.
Time accumulated: CPU = 1.10991 s, elapsed = 5.91112 s.
Peak resident memory used = 64.9 Mbytes.


Notice from spectre during task `MDLControl'.
    22 notices suppressed.


****************************************************************
Transient Analysis `DifTempo-047_DifTempo': time = (0 s -> 4 ns)
****************************************************************
DC simulation time: CPU = 283 us, elapsed = 283.957 us.

Notice from spectre during transient analysis `DifTempo-047_DifTempo', during task `MDLControl'.
    No outputs were found. Loosening output filter criterion to `allpub'.


Opening the PSF file inversor.raw/DifTempo-047_DifTempo.tran.tran ...
Important parameter values:
    start = 0 s
    outputstart = 0 s
    stop = 4 ns
    step = 4 ps
    maxstep = 80 ps
    ic = all
    useprevic = no
    skipdc = no
    reltol = 1e-03
    abstol(V) = 1 uV
    abstol(I) = 1 pA
    temp = 27 C
    tnom = 27 C
    tempeffects = all
    errpreset = moderate
    method = traponly
    lteratio = 3.5
    relref = sigglobal
    cmin = 0 F
    gmin = 1 pS


Output and IC/nodeset summary:
                 save   2       (current)
                 save   3       (voltage)

........9........8........7........6........5........4........

Notice from spectre at time = 2.83612 ns during transient analysis `DifTempo-047_DifTempo', during task `MDLControl'.
    Found trapezoidal ringing on node Va:p.

........9........8........7........6........5........4........3.

Notice from spectre at time = 2.91612 ns during transient analysis `DifTempo-047_DifTempo', during task `MDLControl'.
    Found trapezoidal ringing on node Va:p.

........9........8........7........6........5........4........3...

Notice from spectre at time = 2.99612 ns during transient analysis `DifTempo-047_DifTempo', during task `MDLControl'.
    Found trapezoidal ringing on node Va:p.

........9........8........7........6........5........4........3....

Notice from spectre at time = 3.07612 ns during transient analysis `DifTempo-047_DifTempo', during task `MDLControl'.
    Found trapezoidal ringing on node Va:p.

........9........8........7........6........5........4........3......

Notice from spectre at time = 3.15612 ns during transient analysis `DifTempo-047_DifTempo', during task `MDLControl'.
    Found trapezoidal ringing on node Va:p.
        Further occurrences of this notice will be suppressed.

........9........8........7........6........5........4........3........2........1........0
Number of accepted tran steps =             72

Notice from spectre during transient analysis `DifTempo-047_DifTempo', during task `MDLControl'.
    Trapezoidal ringing is detected during tran analysis.
        Please use method=trap for better results and performance.


Maximum value achieved for any signal of each quantity: 
V: V(out) = 1.003 V
I: I(Va:p) = 2.661 uA
If your circuit contains signals of the same quantity that are vastly different in size (such as high voltage circuitry combined with low voltage control circuitry), you should consider specifying global option `bin_relref=yes'.

~~~~~~~~~~~~~~~~~~~~~~~~~~~~~~~~~
Post-Transient Simulation Summary
~~~~~~~~~~~~~~~~~~~~~~~~~~~~~~~~~
   -   To further speed up simulation, consider
          add ++aps on command line
~~~~~~~~~~~~~~~~~~~~~~~~~~~~~~~~~


During simulation, the CPU load for active processors is :
        Spectre  0 (60.1 %)      1 (100.0 %)     2 (77.8 %)      3 (42.5 %)
        Other   
Initial condition solution time: CPU = 333 us, elapsed = 339.985 us.
Intrinsic tran analysis time:    CPU = 10.538 ms, elapsed = 38.9931 ms.
Total time required for tran analysis `DifTempo-047_DifTempo': CPU = 12.078 ms, elapsed = 40.659 ms.
Time accumulated: CPU = 1.1293 s, elapsed = 6.02657 s.
Peak resident memory used = 64.9 Mbytes.


Notice from spectre during task `MDLControl'.
    11 notices suppressed.


****************************************************************
Transient Analysis `DifTempo-048_DifTempo': time = (0 s -> 4 ns)
****************************************************************
DC simulation time: CPU = 287 us, elapsed = 286.818 us.

Notice from spectre during transient analysis `DifTempo-048_DifTempo', during task `MDLControl'.
    No outputs were found. Loosening output filter criterion to `allpub'.


Opening the PSF file inversor.raw/DifTempo-048_DifTempo.tran.tran ...
Important parameter values:
    start = 0 s
    outputstart = 0 s
    stop = 4 ns
    step = 4 ps
    maxstep = 80 ps
    ic = all
    useprevic = no
    skipdc = no
    reltol = 1e-03
    abstol(V) = 1 uV
    abstol(I) = 1 pA
    temp = 27 C
    tnom = 27 C
    tempeffects = all
    errpreset = moderate
    method = traponly
    lteratio = 3.5
    relref = sigglobal
    cmin = 0 F
    gmin = 1 pS


Output and IC/nodeset summary:
                 save   2       (current)
                 save   3       (voltage)

........9........8........7........6........5........4........3........2........1...

Notice from spectre at time = 3.83076 ns during transient analysis `DifTempo-048_DifTempo', during task `MDLControl'.
    Found trapezoidal ringing on node Va:p.

........9........8........7........6........5........4........3........2........1.....

Notice from spectre at time = 3.91076 ns during transient analysis `DifTempo-048_DifTempo', during task `MDLControl'.
    Found trapezoidal ringing on node Va:p.

........9........8........7........6........5........4........3........2........1.......

Notice from spectre at time = 3.95538 ns during transient analysis `DifTempo-048_DifTempo', during task `MDLControl'.
    Found trapezoidal ringing on node Va:p.

........9........8........7........6........5........4........3........2........1........

Notice from spectre at time = 4 ns during transient analysis `DifTempo-048_DifTempo', during task `MDLControl'.
    Found trapezoidal ringing on node Va:p.

........9........8........7........6........5........4........3........2........1........0
Number of accepted tran steps =             64

Notice from spectre during transient analysis `DifTempo-048_DifTempo', during task `MDLControl'.
    Trapezoidal ringing is detected during tran analysis.
        Please use method=trap for better results and performance.


Maximum value achieved for any signal of each quantity: 
V: V(out) = 1.002 V
I: I(Va:p) = 1.578 uA
If your circuit contains signals of the same quantity that are vastly different in size (such as high voltage circuitry combined with low voltage control circuitry), you should consider specifying global option `bin_relref=yes'.

~~~~~~~~~~~~~~~~~~~~~~~~~~~~~~~~~
Post-Transient Simulation Summary
~~~~~~~~~~~~~~~~~~~~~~~~~~~~~~~~~
   -   To further speed up simulation, consider
          add ++aps on command line
~~~~~~~~~~~~~~~~~~~~~~~~~~~~~~~~~


During simulation, the CPU load for active processors is :
        Spectre  0 (59.7 %)      1 (100.0 %)     2 (78.3 %)      3 (42.7 %)
        Other   
Initial condition solution time: CPU = 341 us, elapsed = 347.137 us.
Intrinsic tran analysis time:    CPU = 9.387 ms, elapsed = 39.3491 ms.
Total time required for tran analysis `DifTempo-048_DifTempo': CPU = 10.923 ms, elapsed = 41.0271 ms.
Time accumulated: CPU = 1.14767 s, elapsed = 6.14345 s.
Peak resident memory used = 64.9 Mbytes.


Aggregate audit (12:30:27 PM, Mon Jan 13, 2020):
Time used: CPU = 1.15 s, elapsed = 6.2 s, util. = 18.6%.
Time spent in licensing: elapsed = 26.6 ms.
Peak memory used = 65.4 Mbytes.
Simulation started at: 12:30:21 PM, Mon Jan 13, 2020, ended at: 12:30:27 PM, Mon Jan 13, 2020, with elapsed time (wall clock): 6.2 s.
spectre completes with 0 errors, 3 warnings, and 390 notices.
