
Spectre (R) Circuit Simulator
Version 16.1.0.673.isr14 64bit -- 30 Mar 2018
Copyright (C) 1989-2018 Cadence Design Systems, Inc. All rights reserved worldwide. Cadence and Spectre are registered trademarks of Cadence Design Systems, Inc. All others are the property of their respective holders.

Includes RSA BSAFE(R) Cryptographic or Security Protocol Software from RSA Security, Inc.

User: brunozimmer   Host: itacolomi.lapsi   HostID: 7F0100   PID: 2329
Memory  available: 336.4659 MB  physical: 33.7038 GB
Linux   : CentOS Linux release 7.6.1810 (Core) 
CPU Type: Intel(R) Xeon(R) CPU E3-1220 V2 @ 3.10GHz
All processors running at 3360.9 MHz
        Socket: Processors
        0:       0,  1,  2,  3
        
System load averages (1min, 5min, 15min) : 9.5 %, 7.8 %, 7.0 %


Simulating `NAND.scs' on itacolomi.lapsi at 9:51:00 AM, Fri Feb 14, 2020 (process id: 2329).
Current working directory: /home/brunozimmer/Documentos/Exerc_Paulo/Double_Nand/tp_hl_b
Command line:
    /tools/cadence/SPECTRE161/tools.lnx86/bin/spectre -64 =mdl NAND.mdl  \
        NAND.scs

Loading /tools/cadence/SPECTRE161/tools.lnx86/cmi/lib/64bit/5.0/libinfineon_sh.so ...
Loading /tools/cadence/SPECTRE161/tools.lnx86/cmi/lib/64bit/5.0/libphilips_o_sh.so ...
Loading /tools/cadence/SPECTRE161/tools.lnx86/cmi/lib/64bit/5.0/libphilips_sh.so ...
Loading /tools/cadence/SPECTRE161/tools.lnx86/cmi/lib/64bit/5.0/libsparam_sh.so ...
Loading /tools/cadence/SPECTRE161/tools.lnx86/cmi/lib/64bit/5.0/libstmodels_sh.so ...
Loading /tools/cadence/SPECTRE161/tools.lnx86/spectre/lib/64bit/mdl/libSpectreEH_sh.so ...

Warning from spectre.
    WARNING (MDL-1452): line 1, column 1: syntax error before or at: *
            unrecognised statement.

Reading file:  /home/brunozimmer/Documentos/Exerc_Paulo/Double_Nand/tp_hl_b/NAND.scs
Reading file:  /tools/cadence/SPECTRE161/tools.lnx86/spectre/etc/configs/mapsubckt.cfg
Reading file:  /tools/cadence/SPECTRE161/tools.lnx86/spectre/etc/configs/spectre.cfg
Reading file:  /home/brunozimmer/Documentos/Exerc_Paulo/Double_Nand/tp_hl_b/NAND2.spi
Reading file:  /home/brunozimmer/Documentos/Exerc_Paulo/Double_Nand/tp_hl_b/45nm_LP.pm
Time for NDB Parsing: CPU = 171.583 ms, elapsed = 263.476 ms.
Time accumulated: CPU = 189.236 ms, elapsed = 263.482 ms.
Peak resident memory used = 52.4 Mbytes.

Reading link:  /tools/cadence/SPECTRE161/tools.lnx86/spectre/etc/ahdl/discipline.h
Reading file:  /tools/cadence/SPECTRE161/tools.lnx86/spectre/etc/ahdl/disciplines.vams
Reading link:  /tools/cadence/SPECTRE161/tools.lnx86/spectre/etc/ahdl/constants.h
Reading file:  /tools/cadence/SPECTRE161/tools.lnx86/spectre/etc/ahdl/constants.vams
Time for Elaboration: CPU = 25.264 ms, elapsed = 17.149 ms.
Time accumulated: CPU = 214.652 ms, elapsed = 280.798 ms.
Peak resident memory used = 59.2 Mbytes.


Warning from spectre during hierarchy flattening.
    WARNING (SFE-2468): A MDL control file 'NAND.mdl' is specified.  All .measure, .print and .probe statements in netlist 'NAND.scs' are ignored.



Warning from spectre during circuit read-in.
    WARNING:     Analysis tran for .print not found, ignoring

Time for EDB Visiting: CPU = 1.377 ms, elapsed = 1.14512 ms.
Time accumulated: CPU = 216.333 ms, elapsed = 282.104 ms.
Peak resident memory used = 60.2 Mbytes.


Global user options:
             rawfmt = psfbin

Scoped user options:

Circuit inventory:
              nodes 8
              bsim4 16    
          capacitor 1     
            vsource 3     

Analysis and control statement inventory:
               tran 1     

Output statements:
             .probe 1     
           .measure 0     
               save 0     

Time for parsing: CPU = 10.466 ms, elapsed = 53.9031 ms.
Time accumulated: CPU = 226.962 ms, elapsed = 336.338 ms.
Peak resident memory used = 61.7 Mbytes.

~~~~~~~~~~~~~~~~~~~~~~
Pre-Simulation Summary
~~~~~~~~~~~~~~~~~~~~~~
~~~~~~~~~~~~~~~~~~~~~~

****************************************************************
Transient Analysis `DifTempo-000_DifTempo': time = (0 s -> 3 ns)
****************************************************************

Notice from spectre during IC analysis, during transient analysis `DifTempo-000_DifTempo', during task `MDLControl'.
    GminDC = 1 pS is large enough to noticeably affect the DC solution.
        dV(X1.net_0__m0__m1) = -8.75782 mV
        Use the `gmin_check' option to eliminate or expand this report.

DC simulation time: CPU = 1.827 ms, elapsed = 1.85585 ms.

Notice from spectre during transient analysis `DifTempo-000_DifTempo', during task `MDLControl'.
    No outputs were found. Loosening output filter criterion to `allpub'.


Opening the PSF file NAND.raw/DifTempo-000_DifTempo.tran.tran ...
Important parameter values:
    start = 0 s
    outputstart = 0 s
    stop = 3 ns
    step = 3 ps
    maxstep = 60 ps
    ic = all
    useprevic = no
    skipdc = no
    reltol = 1e-03
    abstol(V) = 1 uV
    abstol(I) = 1 pA
    temp = 27 C
    tnom = 27 C
    tempeffects = all
    errpreset = moderate
    method = traponly
    lteratio = 3.5
    relref = sigglobal
    cmin = 0 F
    gmin = 1 pS


Output and IC/nodeset summary:
                 save   3       (current)
                 save   8       (voltage)

........

Notice from spectre at time = 333 ps during transient analysis `DifTempo-000_DifTempo', during task `MDLControl'.
    Found trapezoidal ringing on node Va:p.

........9.

Notice from spectre at time = 393 ps during transient analysis `DifTempo-000_DifTempo', during task `MDLControl'.
    Found trapezoidal ringing on node Va:p.

........9...

Notice from spectre at time = 453 ps during transient analysis `DifTempo-000_DifTempo', during task `MDLControl'.
    Found trapezoidal ringing on node Va:p.

........9.....

Notice from spectre at time = 513 ps during transient analysis `DifTempo-000_DifTempo', during task `MDLControl'.
    Found trapezoidal ringing on node Va:p.

........9......

Notice from spectre at time = 573 ps during transient analysis `DifTempo-000_DifTempo', during task `MDLControl'.
    Found trapezoidal ringing on node Va:p.
        Further occurrences of this notice will be suppressed.

........9........8........7........6........5........4........3........2........1........0
Number of accepted tran steps =             89

Notice from spectre during transient analysis `DifTempo-000_DifTempo', during task `MDLControl'.
    Trapezoidal ringing is detected during tran analysis.
        Please use method=trap for better results and performance.


Maximum value achieved for any signal of each quantity: 
V: V(out) = 1.111 V
I: I(Vb:p) = 158.2 uA
If your circuit contains signals of the same quantity that are vastly different in size (such as high voltage circuitry combined with low voltage control circuitry), you should consider specifying global option `bin_relref=yes'.

~~~~~~~~~~~~~~~~~~~~~~~~~~~~~~~~~
Post-Transient Simulation Summary
~~~~~~~~~~~~~~~~~~~~~~~~~~~~~~~~~
   -   To further speed up simulation, consider
          add ++aps on command line
~~~~~~~~~~~~~~~~~~~~~~~~~~~~~~~~~


During simulation, the CPU load for active processors is :
        Spectre  0 (24.4 %)      1 (15.0 %)      2 (51.2 %)      3 (10.3 %)
        Other   
Initial condition solution time: CPU = 1.896 ms, elapsed = 1.93381 ms.
Intrinsic tran analysis time:    CPU = 23.455 ms, elapsed = 44.4939 ms.
Total time required for tran analysis `DifTempo-000_DifTempo': CPU = 27.176 ms, elapsed = 48.4061 ms.
Time accumulated: CPU = 262.288 ms, elapsed = 439.993 ms.
Peak resident memory used = 64.2 Mbytes.


Notice from spectre during task `MDLControl'.
    39 notices suppressed.


****************************************************************
Transient Analysis `DifTempo-001_DifTempo': time = (0 s -> 3 ns)
****************************************************************

Notice from spectre during IC analysis, during transient analysis `DifTempo-001_DifTempo', during task `MDLControl'.
    GminDC = 1 pS is large enough to noticeably affect the DC solution.
        dV(X1.net_0__m0__m1) = -8.75782 mV
        Use the `gmin_check' option to eliminate or expand this report.

DC simulation time: CPU = 1.261 ms, elapsed = 1.28889 ms.

Notice from spectre during transient analysis `DifTempo-001_DifTempo', during task `MDLControl'.
    No outputs were found. Loosening output filter criterion to `allpub'.


Opening the PSF file NAND.raw/DifTempo-001_DifTempo.tran.tran ...
Important parameter values:
    start = 0 s
    outputstart = 0 s
    stop = 3 ns
    step = 3 ps
    maxstep = 60 ps
    ic = all
    useprevic = no
    skipdc = no
    reltol = 1e-03
    abstol(V) = 1 uV
    abstol(I) = 1 pA
    temp = 27 C
    tnom = 27 C
    tempeffects = all
    errpreset = moderate
    method = traponly
    lteratio = 3.5
    relref = sigglobal
    cmin = 0 F
    gmin = 1 pS


Output and IC/nodeset summary:
                 save   3       (current)
                 save   8       (voltage)

........

Notice from spectre at time = 333 ps during transient analysis `DifTempo-001_DifTempo', during task `MDLControl'.
    Found trapezoidal ringing on node Va:p.

........9.

Notice from spectre at time = 393 ps during transient analysis `DifTempo-001_DifTempo', during task `MDLControl'.
    Found trapezoidal ringing on node Va:p.

........9...

Notice from spectre at time = 453 ps during transient analysis `DifTempo-001_DifTempo', during task `MDLControl'.
    Found trapezoidal ringing on node Va:p.

........9.....

Notice from spectre at time = 513 ps during transient analysis `DifTempo-001_DifTempo', during task `MDLControl'.
    Found trapezoidal ringing on node Va:p.

........9......

Notice from spectre at time = 573 ps during transient analysis `DifTempo-001_DifTempo', during task `MDLControl'.
    Found trapezoidal ringing on node Va:p.
        Further occurrences of this notice will be suppressed.

........9........8........7........6........5........4........3........2........1........0
Number of accepted tran steps =             87

Notice from spectre during transient analysis `DifTempo-001_DifTempo', during task `MDLControl'.
    Trapezoidal ringing is detected during tran analysis.
        Please use method=trap for better results and performance.


Maximum value achieved for any signal of each quantity: 
V: V(out) = 1.106 V
I: I(Vb:p) = 162.3 uA
If your circuit contains signals of the same quantity that are vastly different in size (such as high voltage circuitry combined with low voltage control circuitry), you should consider specifying global option `bin_relref=yes'.

~~~~~~~~~~~~~~~~~~~~~~~~~~~~~~~~~
Post-Transient Simulation Summary
~~~~~~~~~~~~~~~~~~~~~~~~~~~~~~~~~
   -   To further speed up simulation, consider
          add ++aps on command line
~~~~~~~~~~~~~~~~~~~~~~~~~~~~~~~~~


During simulation, the CPU load for active processors is :
        Spectre  0 (19.2 %)      1 (17.3 %)      2 (46.2 %)      3 (9.8 %)
        Other   
Initial condition solution time: CPU = 1.307 ms, elapsed = 1.34301 ms.
Intrinsic tran analysis time:    CPU = 21.103 ms, elapsed = 43.189 ms.
Total time required for tran analysis `DifTempo-001_DifTempo': CPU = 23.756 ms, elapsed = 46.016 ms.
Time accumulated: CPU = 293.493 ms, elapsed = 562.317 ms.
Peak resident memory used = 64.4 Mbytes.


Notice from spectre during task `MDLControl'.
    39 notices suppressed.


****************************************************************
Transient Analysis `DifTempo-002_DifTempo': time = (0 s -> 3 ns)
****************************************************************

Notice from spectre during IC analysis, during transient analysis `DifTempo-002_DifTempo', during task `MDLControl'.
    GminDC = 1 pS is large enough to noticeably affect the DC solution.
        dV(X2.net_0__m0__m1) = -8.75782 mV
        Use the `gmin_check' option to eliminate or expand this report.

DC simulation time: CPU = 1.228 ms, elapsed = 1.25909 ms.

Notice from spectre during transient analysis `DifTempo-002_DifTempo', during task `MDLControl'.
    No outputs were found. Loosening output filter criterion to `allpub'.


Opening the PSF file NAND.raw/DifTempo-002_DifTempo.tran.tran ...
Important parameter values:
    start = 0 s
    outputstart = 0 s
    stop = 3 ns
    step = 3 ps
    maxstep = 60 ps
    ic = all
    useprevic = no
    skipdc = no
    reltol = 1e-03
    abstol(V) = 1 uV
    abstol(I) = 1 pA
    temp = 27 C
    tnom = 27 C
    tempeffects = all
    errpreset = moderate
    method = traponly
    lteratio = 3.5
    relref = sigglobal
    cmin = 0 F
    gmin = 1 pS


Output and IC/nodeset summary:
                 save   3       (current)
                 save   8       (voltage)

........9.

Notice from spectre at time = 393 ps during transient analysis `DifTempo-002_DifTempo', during task `MDLControl'.
    Found trapezoidal ringing on node Va:p.

........9...

Notice from spectre at time = 453 ps during transient analysis `DifTempo-002_DifTempo', during task `MDLControl'.
    Found trapezoidal ringing on node Va:p.

........9.....

Notice from spectre at time = 513 ps during transient analysis `DifTempo-002_DifTempo', during task `MDLControl'.
    Found trapezoidal ringing on node Va:p.

........9......

Notice from spectre at time = 573 ps during transient analysis `DifTempo-002_DifTempo', during task `MDLControl'.
    Found trapezoidal ringing on node Va:p.

........9........

Notice from spectre at time = 633 ps during transient analysis `DifTempo-002_DifTempo', during task `MDLControl'.
    Found trapezoidal ringing on node Va:p.
        Further occurrences of this notice will be suppressed.

........9........8........7........6........5........4........3........2........1........0
Number of accepted tran steps =             90

Notice from spectre during transient analysis `DifTempo-002_DifTempo', during task `MDLControl'.
    Trapezoidal ringing is detected during tran analysis.
        Please use method=trap for better results and performance.


Maximum value achieved for any signal of each quantity: 
V: V(out) = 1.105 V
I: I(Vb:p) = 156.2 uA
If your circuit contains signals of the same quantity that are vastly different in size (such as high voltage circuitry combined with low voltage control circuitry), you should consider specifying global option `bin_relref=yes'.

~~~~~~~~~~~~~~~~~~~~~~~~~~~~~~~~~
Post-Transient Simulation Summary
~~~~~~~~~~~~~~~~~~~~~~~~~~~~~~~~~
   -   To further speed up simulation, consider
          add ++aps on command line
~~~~~~~~~~~~~~~~~~~~~~~~~~~~~~~~~


During simulation, the CPU load for active processors is :
        Spectre  0 (18.8 %)      1 (18.8 %)      2 (43.1 %)      3 (10.8 %)
        Other   
Initial condition solution time: CPU = 1.273 ms, elapsed = 1.31106 ms.
Intrinsic tran analysis time:    CPU = 20.773 ms, elapsed = 43.1941 ms.
Total time required for tran analysis `DifTempo-002_DifTempo': CPU = 23.341 ms, elapsed = 45.9569 ms.
Time accumulated: CPU = 324.7 ms, elapsed = 687.303 ms.
Peak resident memory used = 64.4 Mbytes.


Notice from spectre during task `MDLControl'.
    38 notices suppressed.


Aggregate audit (9:51:00 AM, Fri Feb 14, 2020):
Time used: CPU = 329 ms, elapsed = 745 ms, util. = 44.1%.
Time spent in licensing: elapsed = 93.8 ms, percentage of total = 12.6%.
Peak memory used = 64.9 Mbytes.
Simulation started at: 9:51:00 AM, Fri Feb 14, 2020, ended at: 9:51:00 AM, Fri Feb 14, 2020, with elapsed time (wall clock): 745 ms.
spectre completes with 0 errors, 3 warnings, and 27 notices.
