
Spectre (R) Circuit Simulator
Version 16.1.0.673.isr14 64bit -- 30 Mar 2018
Copyright (C) 1989-2018 Cadence Design Systems, Inc. All rights reserved worldwide. Cadence and Spectre are registered trademarks of Cadence Design Systems, Inc. All others are the property of their respective holders.

Includes RSA BSAFE(R) Cryptographic or Security Protocol Software from RSA Security, Inc.

User: brunozimmer   Host: itacolomi.lapsi   HostID: 7F0100   PID: 12753
Memory  available: 1.6232 GB  physical: 33.7038 GB
Linux   : CentOS Linux release 7.6.1810 (Core) 
CPU Type: Intel(R) Xeon(R) CPU E3-1220 V2 @ 3.10GHz
        Socket: Processors [Frequency]
        0:       0 [3055.2],  1 [3070.9],  2 [3004.4],  3 [3097.2]
        
System load averages (1min, 5min, 15min) : 4.2 %, 4.8 %, 5.5 %


Simulating `NAND.scs' on itacolomi.lapsi at 11:21:28 AM, Fri Feb 14, 2020 (process id: 12753).
Current working directory: /home/brunozimmer/Documentos/Exerc_Paulo/2x_nand
Command line:
    /tools/cadence/SPECTRE161/tools.lnx86/bin/spectre -64 =mdl NAND.mdl  \
        NAND.scs

Loading /tools/cadence/SPECTRE161/tools.lnx86/cmi/lib/64bit/5.0/libinfineon_sh.so ...
Loading /tools/cadence/SPECTRE161/tools.lnx86/cmi/lib/64bit/5.0/libphilips_o_sh.so ...
Loading /tools/cadence/SPECTRE161/tools.lnx86/cmi/lib/64bit/5.0/libphilips_sh.so ...
Loading /tools/cadence/SPECTRE161/tools.lnx86/cmi/lib/64bit/5.0/libsparam_sh.so ...
Loading /tools/cadence/SPECTRE161/tools.lnx86/cmi/lib/64bit/5.0/libstmodels_sh.so ...
Loading /tools/cadence/SPECTRE161/tools.lnx86/spectre/lib/64bit/mdl/libSpectreEH_sh.so ...

Error found by spectre.
    ERROR (MDL-6): Failed to parse MDL control file, `NAND.mdl'.


Aggregate audit (11:21:30 AM, Fri Feb 14, 2020):
Time used: CPU = 195 ms, elapsed = 2.15 s, util. = 9.07%.
Time spent in licensing: elapsed = 2 s, percentage of total = 92.8%.
Peak memory used = 48.2 Mbytes.
Simulation started at: 11:21:28 AM, Fri Feb 14, 2020, ended at: 11:21:30 AM, Fri Feb 14, 2020, with elapsed time (wall clock): 2.15 s.
spectre completes with 1 error, 0 warnings, and 0 notices.
spectre terminated prematurely due to fatal error.
