
Spectre (R) Circuit Simulator
Version 16.1.0.673.isr14 64bit -- 30 Mar 2018
Copyright (C) 1989-2018 Cadence Design Systems, Inc. All rights reserved worldwide. Cadence and Spectre are registered trademarks of Cadence Design Systems, Inc. All others are the property of their respective holders.

Includes RSA BSAFE(R) Cryptographic or Security Protocol Software from RSA Security, Inc.

User: brunozimmer   Host: itacolomi.lapsi   HostID: 7F0100   PID: 4306
Memory  available: 281.7720 MB  physical: 33.7038 GB
Linux   : CentOS Linux release 7.6.1810 (Core) 
CPU Type: Intel(R) Xeon(R) CPU E3-1220 V2 @ 3.10GHz
        Socket: Processors [Frequency]
        0:       0 [3207.5],  1 [3252.3],  2 [3196.3],  3 [3198.8]
        
System load averages (1min, 5min, 15min) : 8.2 %, 7.5 %, 7.8 %


Simulating `NAND.scs' on itacolomi.lapsi at 10:04:30 AM, Fri Feb 14, 2020 (process id: 4306).
Current working directory: /home/brunozimmer/Documentos/Exerc_Paulo/2x_nand/tp_lh_b
Command line:
    /tools/cadence/SPECTRE161/tools.lnx86/bin/spectre -64 =mdl NAND.mdl  \
        NAND.scs

Loading /tools/cadence/SPECTRE161/tools.lnx86/cmi/lib/64bit/5.0/libinfineon_sh.so ...
Loading /tools/cadence/SPECTRE161/tools.lnx86/cmi/lib/64bit/5.0/libphilips_o_sh.so ...
Loading /tools/cadence/SPECTRE161/tools.lnx86/cmi/lib/64bit/5.0/libphilips_sh.so ...
Loading /tools/cadence/SPECTRE161/tools.lnx86/cmi/lib/64bit/5.0/libsparam_sh.so ...
Loading /tools/cadence/SPECTRE161/tools.lnx86/cmi/lib/64bit/5.0/libstmodels_sh.so ...
Loading /tools/cadence/SPECTRE161/tools.lnx86/spectre/lib/64bit/mdl/libSpectreEH_sh.so ...

Warning from spectre.
    WARNING (MDL-1452): line 1, column 1: syntax error before or at: *
            unrecognised statement.

Reading file:  /home/brunozimmer/Documentos/Exerc_Paulo/2x_nand/tp_lh_b/NAND.scs
Reading file:  /tools/cadence/SPECTRE161/tools.lnx86/spectre/etc/configs/mapsubckt.cfg
Reading file:  /tools/cadence/SPECTRE161/tools.lnx86/spectre/etc/configs/spectre.cfg
Reading file:  /home/brunozimmer/Documentos/Exerc_Paulo/2x_nand/tp_lh_b/NAND2.spi
Reading file:  /home/brunozimmer/Documentos/Exerc_Paulo/2x_nand/tp_lh_b/45nm_LP.pm
Time for NDB Parsing: CPU = 170.096 ms, elapsed = 194.767 ms.
Time accumulated: CPU = 188.458 ms, elapsed = 194.775 ms.
Peak resident memory used = 52.4 Mbytes.

Reading link:  /tools/cadence/SPECTRE161/tools.lnx86/spectre/etc/ahdl/discipline.h
Reading file:  /tools/cadence/SPECTRE161/tools.lnx86/spectre/etc/ahdl/disciplines.vams
Reading link:  /tools/cadence/SPECTRE161/tools.lnx86/spectre/etc/ahdl/constants.h
Reading file:  /tools/cadence/SPECTRE161/tools.lnx86/spectre/etc/ahdl/constants.vams
Time for Elaboration: CPU = 16.669 ms, elapsed = 16.6368 ms.
Time accumulated: CPU = 205.332 ms, elapsed = 211.649 ms.
Peak resident memory used = 59.2 Mbytes.


Warning from spectre during hierarchy flattening.
    WARNING (SFE-2468): A MDL control file 'NAND.mdl' is specified.  All .measure, .print and .probe statements in netlist 'NAND.scs' are ignored.



Warning from spectre during circuit read-in.
    WARNING:     Analysis tran for .print not found, ignoring

Time for EDB Visiting: CPU = 826 us, elapsed = 854.015 us.
Time accumulated: CPU = 206.294 ms, elapsed = 212.651 ms.
Peak resident memory used = 59.8 Mbytes.


Global user options:
             rawfmt = psfbin

Scoped user options:

Circuit inventory:
              nodes 6
              bsim4 8     
          capacitor 1     
            vsource 3     

Analysis and control statement inventory:
               tran 1     

Output statements:
             .probe 1     
           .measure 0     
               save 0     

Time for parsing: CPU = 2.444 ms, elapsed = 44.5139 ms.
Time accumulated: CPU = 208.847 ms, elapsed = 257.288 ms.
Peak resident memory used = 61.2 Mbytes.

~~~~~~~~~~~~~~~~~~~~~~
Pre-Simulation Summary
~~~~~~~~~~~~~~~~~~~~~~
~~~~~~~~~~~~~~~~~~~~~~

****************************************************************
Transient Analysis `DifTempo-000_DifTempo': time = (0 s -> 3 ns)
****************************************************************
DC simulation time: CPU = 845 us, elapsed = 846.148 us.

Notice from spectre during transient analysis `DifTempo-000_DifTempo', during task `MDLControl'.
    No outputs were found. Loosening output filter criterion to `allpub'.


Opening the PSF file NAND.raw/DifTempo-000_DifTempo.tran.tran ...
Important parameter values:
    start = 0 s
    outputstart = 0 s
    stop = 3 ns
    step = 3 ps
    maxstep = 60 ps
    ic = all
    useprevic = no
    skipdc = no
    reltol = 1e-03
    abstol(V) = 1 uV
    abstol(I) = 1 pA
    temp = 27 C
    tnom = 27 C
    tempeffects = all
    errpreset = moderate
    method = traponly
    lteratio = 3.5
    relref = sigglobal
    cmin = 0 F
    gmin = 1 pS


Output and IC/nodeset summary:
                 save   3       (current)
                 save   6       (voltage)

........9........8........7........

Notice from spectre at time = 1.22208 ns during transient analysis `DifTempo-000_DifTempo', during task `MDLControl'.
    Found trapezoidal ringing on node Va:p.

........9........8........7........6.

Notice from spectre at time = 1.28208 ns during transient analysis `DifTempo-000_DifTempo', during task `MDLControl'.
    Found trapezoidal ringing on node Va:p.

........9........8........7........6..

Notice from spectre at time = 1.34208 ns during transient analysis `DifTempo-000_DifTempo', during task `MDLControl'.
    Found trapezoidal ringing on node Va:p.

........9........8........7........6....

Notice from spectre at time = 1.40208 ns during transient analysis `DifTempo-000_DifTempo', during task `MDLControl'.
    Found trapezoidal ringing on node Va:p.

........9........8........7........6......

Notice from spectre at time = 1.46208 ns during transient analysis `DifTempo-000_DifTempo', during task `MDLControl'.
    Found trapezoidal ringing on node Va:p.
        Further occurrences of this notice will be suppressed.

........9........8........7........6........5........4........3........2........1........0
Number of accepted tran steps =             85

Notice from spectre during transient analysis `DifTempo-000_DifTempo', during task `MDLControl'.
    Trapezoidal ringing is detected during tran analysis.
        Please use method=trap for better results and performance.


Maximum value achieved for any signal of each quantity: 
V: V(out) = 1.077 V
I: I(Va:p) = 164.5 uA
If your circuit contains signals of the same quantity that are vastly different in size (such as high voltage circuitry combined with low voltage control circuitry), you should consider specifying global option `bin_relref=yes'.

~~~~~~~~~~~~~~~~~~~~~~~~~~~~~~~~~
Post-Transient Simulation Summary
~~~~~~~~~~~~~~~~~~~~~~~~~~~~~~~~~
   -   To further speed up simulation, consider
          add ++aps on command line
~~~~~~~~~~~~~~~~~~~~~~~~~~~~~~~~~


During simulation, the CPU load for active processors is :
        Spectre  0 (22.6 %)      1 (15.6 %)      2 (58.1 %)      3 (22.6 %)
        Other   
Initial condition solution time: CPU = 918 us, elapsed = 924.826 us.
Intrinsic tran analysis time:    CPU = 16.034 ms, elapsed = 38.61 ms.
Total time required for tran analysis `DifTempo-000_DifTempo': CPU = 18.569 ms, elapsed = 41.28 ms.
Time accumulated: CPU = 234.813 ms, elapsed = 353.72 ms.
Peak resident memory used = 63.7 Mbytes.


Notice from spectre during task `MDLControl'.
    26 notices suppressed.


****************************************************************
Transient Analysis `DifTempo-001_DifTempo': time = (0 s -> 3 ns)
****************************************************************
DC simulation time: CPU = 1.034 ms, elapsed = 1.03617 ms.

Notice from spectre during transient analysis `DifTempo-001_DifTempo', during task `MDLControl'.
    No outputs were found. Loosening output filter criterion to `allpub'.


Opening the PSF file NAND.raw/DifTempo-001_DifTempo.tran.tran ...
Important parameter values:
    start = 0 s
    outputstart = 0 s
    stop = 3 ns
    step = 3 ps
    maxstep = 60 ps
    ic = all
    useprevic = no
    skipdc = no
    reltol = 1e-03
    abstol(V) = 1 uV
    abstol(I) = 1 pA
    temp = 27 C
    tnom = 27 C
    tempeffects = all
    errpreset = moderate
    method = traponly
    lteratio = 3.5
    relref = sigglobal
    cmin = 0 F
    gmin = 1 pS


Output and IC/nodeset summary:
                 save   3       (current)
                 save   6       (voltage)

........9........8........7.......

Notice from spectre at time = 1.16109 ns during transient analysis `DifTempo-001_DifTempo', during task `MDLControl'.
    Found trapezoidal ringing on node Va:p.

........9........8........7........

Notice from spectre at time = 1.22109 ns during transient analysis `DifTempo-001_DifTempo', during task `MDLControl'.
    Found trapezoidal ringing on node Va:p.

........9........8........7........6.

Notice from spectre at time = 1.28109 ns during transient analysis `DifTempo-001_DifTempo', during task `MDLControl'.
    Found trapezoidal ringing on node Va:p.

........9........8........7........6..

Notice from spectre at time = 1.34109 ns during transient analysis `DifTempo-001_DifTempo', during task `MDLControl'.
    Found trapezoidal ringing on node Va:p.

........9........8........7........6....

Notice from spectre at time = 1.40109 ns during transient analysis `DifTempo-001_DifTempo', during task `MDLControl'.
    Found trapezoidal ringing on node Va:p.
        Further occurrences of this notice will be suppressed.

........9........8........7........6........5........4........3........2........1........0
Number of accepted tran steps =             86

Notice from spectre during transient analysis `DifTempo-001_DifTempo', during task `MDLControl'.
    Trapezoidal ringing is detected during tran analysis.
        Please use method=trap for better results and performance.


Maximum value achieved for any signal of each quantity: 
V: V(out) = 1.076 V
I: I(Va:p) = 162.3 uA
If your circuit contains signals of the same quantity that are vastly different in size (such as high voltage circuitry combined with low voltage control circuitry), you should consider specifying global option `bin_relref=yes'.

~~~~~~~~~~~~~~~~~~~~~~~~~~~~~~~~~
Post-Transient Simulation Summary
~~~~~~~~~~~~~~~~~~~~~~~~~~~~~~~~~
   -   To further speed up simulation, consider
          add ++aps on command line
~~~~~~~~~~~~~~~~~~~~~~~~~~~~~~~~~


During simulation, the CPU load for active processors is :
        Spectre  0 (28.6 %)      1 (16.3 %)      2 (45.2 %)      3 (18.6 %)
        Other   
Initial condition solution time: CPU = 1.103 ms, elapsed = 1.10602 ms.
Intrinsic tran analysis time:    CPU = 16.773 ms, elapsed = 39.4459 ms.
Total time required for tran analysis `DifTempo-001_DifTempo': CPU = 19.56 ms, elapsed = 42.2339 ms.
Time accumulated: CPU = 262.634 ms, elapsed = 471.711 ms.
Peak resident memory used = 63.8 Mbytes.


Notice from spectre during task `MDLControl'.
    27 notices suppressed.


****************************************************************
Transient Analysis `DifTempo-002_DifTempo': time = (0 s -> 3 ns)
****************************************************************
DC simulation time: CPU = 575 us, elapsed = 576.019 us.

Notice from spectre during transient analysis `DifTempo-002_DifTempo', during task `MDLControl'.
    No outputs were found. Loosening output filter criterion to `allpub'.


Opening the PSF file NAND.raw/DifTempo-002_DifTempo.tran.tran ...
Important parameter values:
    start = 0 s
    outputstart = 0 s
    stop = 3 ns
    step = 3 ps
    maxstep = 60 ps
    ic = all
    useprevic = no
    skipdc = no
    reltol = 1e-03
    abstol(V) = 1 uV
    abstol(I) = 1 pA
    temp = 27 C
    tnom = 27 C
    tempeffects = all
    errpreset = moderate
    method = traponly
    lteratio = 3.5
    relref = sigglobal
    cmin = 0 F
    gmin = 1 pS


Output and IC/nodeset summary:
                 save   3       (current)
                 save   6       (voltage)

........9........8........7........

Notice from spectre at time = 1.22531 ns during transient analysis `DifTempo-002_DifTempo', during task `MDLControl'.
    Found trapezoidal ringing on node Vb:p.

........9........8........7........6.

Notice from spectre at time = 1.28531 ns during transient analysis `DifTempo-002_DifTempo', during task `MDLControl'.
    Found trapezoidal ringing on node Vb:p.

........9........8........7........6...

Notice from spectre at time = 1.34531 ns during transient analysis `DifTempo-002_DifTempo', during task `MDLControl'.
    Found trapezoidal ringing on node Vb:p.

........9........8........7........6....

Notice from spectre at time = 1.40531 ns during transient analysis `DifTempo-002_DifTempo', during task `MDLControl'.
    Found trapezoidal ringing on node Vb:p.

........9........8........7........6......

Notice from spectre at time = 1.46531 ns during transient analysis `DifTempo-002_DifTempo', during task `MDLControl'.
    Found trapezoidal ringing on node Vb:p.
        Further occurrences of this notice will be suppressed.

........9........8........7........6........5........4........3........2........1........0
Number of accepted tran steps =             83

Notice from spectre during transient analysis `DifTempo-002_DifTempo', during task `MDLControl'.
    Trapezoidal ringing is detected during tran analysis.
        Please use method=trap for better results and performance.


Maximum value achieved for any signal of each quantity: 
V: V(out) = 1.075 V
I: I(Va:p) = 155.5 uA
If your circuit contains signals of the same quantity that are vastly different in size (such as high voltage circuitry combined with low voltage control circuitry), you should consider specifying global option `bin_relref=yes'.

~~~~~~~~~~~~~~~~~~~~~~~~~~~~~~~~~
Post-Transient Simulation Summary
~~~~~~~~~~~~~~~~~~~~~~~~~~~~~~~~~
   -   To further speed up simulation, consider
          add ++aps on command line
~~~~~~~~~~~~~~~~~~~~~~~~~~~~~~~~~


During simulation, the CPU load for active processors is :
        Spectre  0 (31.5 %)      1 (17.0 %)      2 (41.5 %)      3 (16.7 %)
        Other   
Initial condition solution time: CPU = 622 us, elapsed = 629.902 us.
Intrinsic tran analysis time:    CPU = 12.967 ms, elapsed = 36.2861 ms.
Total time required for tran analysis `DifTempo-002_DifTempo': CPU = 14.893 ms, elapsed = 38.347 ms.
Time accumulated: CPU = 284.617 ms, elapsed = 583.673 ms.
Peak resident memory used = 63.8 Mbytes.


Notice from spectre during task `MDLControl'.
    26 notices suppressed.


Aggregate audit (10:04:31 AM, Fri Feb 14, 2020):
Time used: CPU = 288 ms, elapsed = 633 ms, util. = 45.6%.
Time spent in licensing: elapsed = 24.7 ms.
Peak memory used = 64.4 Mbytes.
Simulation started at: 10:04:30 AM, Fri Feb 14, 2020, ended at: 10:04:31 AM, Fri Feb 14, 2020, with elapsed time (wall clock): 633 ms.
spectre completes with 0 errors, 3 warnings, and 24 notices.
