
Spectre (R) Circuit Simulator
Version 16.1.0.673.isr14 64bit -- 30 Mar 2018
Copyright (C) 1989-2018 Cadence Design Systems, Inc. All rights reserved worldwide. Cadence and Spectre are registered trademarks of Cadence Design Systems, Inc. All others are the property of their respective holders.

Includes RSA BSAFE(R) Cryptographic or Security Protocol Software from RSA Security, Inc.

User: brunozimmer   Host: itacolomi.lapsi   HostID: 7F0100   PID: 27263
Memory  available: 800.0430 MB  physical: 33.7038 GB
Linux   : CentOS Linux release 7.6.1810 (Core) 
CPU Type: Intel(R) Xeon(R) CPU E3-1220 V2 @ 3.10GHz
All processors running at 3306.6 MHz
        Socket: Processors
        0:       0,  1,  2,  3
        
System load averages (1min, 5min, 15min) : 54.0 %, 55.8 %, 56.5 %


Simulating `inv1.scs' on itacolomi.lapsi at 12:22:07 PM, Mon Jan 13, 2020 (process id: 27263).
Current working directory: /home/brunozimmer/Documentos/Lab04/Inv/fall
Command line:
    /tools/cadence/SPECTRE161/tools.lnx86/bin/spectre -64 =mdl  \
        inversor.mdl inv1.scs

Loading /tools/cadence/SPECTRE161/tools.lnx86/cmi/lib/64bit/5.0/libinfineon_sh.so ...
Loading /tools/cadence/SPECTRE161/tools.lnx86/cmi/lib/64bit/5.0/libphilips_o_sh.so ...
Loading /tools/cadence/SPECTRE161/tools.lnx86/cmi/lib/64bit/5.0/libphilips_sh.so ...
Loading /tools/cadence/SPECTRE161/tools.lnx86/cmi/lib/64bit/5.0/libsparam_sh.so ...
Loading /tools/cadence/SPECTRE161/tools.lnx86/cmi/lib/64bit/5.0/libstmodels_sh.so ...
Loading /tools/cadence/SPECTRE161/tools.lnx86/spectre/lib/64bit/mdl/libSpectreEH_sh.so ...

Warning from spectre.
    WARNING (MDL-1452): line 1, column 1: syntax error before or at: *
            unrecognised statement.

Reading file:  /home/brunozimmer/Documentos/Lab04/Inv/fall/inv1.scs
Reading file:  /tools/cadence/SPECTRE161/tools.lnx86/spectre/etc/configs/mapsubckt.cfg
Reading file:  /tools/cadence/SPECTRE161/tools.lnx86/spectre/etc/configs/spectre.cfg
Reading file:  /home/brunozimmer/Documentos/Lab04/Inv/fall/45nm_LP.pm
Reading file:  /home/brunozimmer/Documentos/Lab04/Inv/fall/INV.spi
Time for NDB Parsing: CPU = 206.606 ms, elapsed = 222.894 ms.
Time accumulated: CPU = 226.168 ms, elapsed = 222.903 ms.
Peak resident memory used = 52.9 Mbytes.

Reading link:  /tools/cadence/SPECTRE161/tools.lnx86/spectre/etc/ahdl/discipline.h
Reading file:  /tools/cadence/SPECTRE161/tools.lnx86/spectre/etc/ahdl/disciplines.vams
Reading link:  /tools/cadence/SPECTRE161/tools.lnx86/spectre/etc/ahdl/constants.h
Reading file:  /tools/cadence/SPECTRE161/tools.lnx86/spectre/etc/ahdl/constants.vams
Time for Elaboration: CPU = 19.163 ms, elapsed = 19.1951 ms.
Time accumulated: CPU = 245.481 ms, elapsed = 242.265 ms.
Peak resident memory used = 59.6 Mbytes.


Warning from spectre during hierarchy flattening.
    WARNING (SFE-2468): A MDL control file 'inversor.mdl' is specified.  All .measure, .print and .probe statements in netlist 'inv1.scs' are ignored.



Warning from spectre during circuit read-in.
    WARNING:     Analysis tran for .print not found, ignoring

Time for EDB Visiting: CPU = 819 us, elapsed = 856.876 us.
Time accumulated: CPU = 246.463 ms, elapsed = 243.303 ms.
Peak resident memory used = 60.3 Mbytes.


Global user options:
             rawfmt = psfbin

Scoped user options:

Circuit inventory:
              nodes 3
              bsim4 2     
          capacitor 1     
            vsource 2     

Analysis and control statement inventory:
               tran 1     

Output statements:
             .probe 1     
           .measure 0     
               save 0     

Time for parsing: CPU = 2.439 ms, elapsed = 50.9081 ms.
Time accumulated: CPU = 249.031 ms, elapsed = 294.359 ms.
Peak resident memory used = 61.6 Mbytes.

~~~~~~~~~~~~~~~~~~~~~~
Pre-Simulation Summary
~~~~~~~~~~~~~~~~~~~~~~
~~~~~~~~~~~~~~~~~~~~~~

****************************************************************
Transient Analysis `DifTempo-000_DifTempo': time = (0 s -> 3 ns)
****************************************************************
DC simulation time: CPU = 479 us, elapsed = 479.937 us.

Notice from spectre during transient analysis `DifTempo-000_DifTempo', during task `MDLControl'.
    No outputs were found. Loosening output filter criterion to `allpub'.


Opening the PSF file inv1.raw/DifTempo-000_DifTempo.tran.tran ...
Important parameter values:
    start = 0 s
    outputstart = 0 s
    stop = 3 ns
    step = 3 ps
    maxstep = 60 ps
    ic = all
    useprevic = no
    skipdc = no
    reltol = 1e-03
    abstol(V) = 1 uV
    abstol(I) = 1 pA
    temp = 27 C
    tnom = 27 C
    tempeffects = all
    errpreset = moderate
    method = traponly
    lteratio = 3.5
    relref = sigglobal
    cmin = 0 F
    gmin = 1 pS


Output and IC/nodeset summary:
                 save   2       (current)
                 save   3       (voltage)

........9........8........7......

Notice from spectre at time = 1.15018 ns during transient analysis `DifTempo-000_DifTempo', during task `MDLControl'.
    Found trapezoidal ringing on node Vd:p.

........9........8........7........

Notice from spectre at time = 1.21018 ns during transient analysis `DifTempo-000_DifTempo', during task `MDLControl'.
    Found trapezoidal ringing on node Vd:p.

........9........8........7........6

Notice from spectre at time = 1.27018 ns during transient analysis `DifTempo-000_DifTempo', during task `MDLControl'.
    Found trapezoidal ringing on node Vd:p.

........9........8........7........6..

Notice from spectre at time = 1.33018 ns during transient analysis `DifTempo-000_DifTempo', during task `MDLControl'.
    Found trapezoidal ringing on node Vd:p.

........9........8........7........6....

Notice from spectre at time = 1.39018 ns during transient analysis `DifTempo-000_DifTempo', during task `MDLControl'.
    Found trapezoidal ringing on node Vd:p.
        Further occurrences of this notice will be suppressed.

........9........8........7........6........5........4........3........2........1........0
Number of accepted tran steps =             82

Notice from spectre during transient analysis `DifTempo-000_DifTempo', during task `MDLControl'.
    Trapezoidal ringing is detected during tran analysis.
        Please use method=trap for better results and performance.


Maximum value achieved for any signal of each quantity: 
V: V(X1.M_i_1:dbnode) = 1 V
I: I(Vd:p) = 78.74 uA
If your circuit contains signals of the same quantity that are vastly different in size (such as high voltage circuitry combined with low voltage control circuitry), you should consider specifying global option `bin_relref=yes'.

~~~~~~~~~~~~~~~~~~~~~~~~~~~~~~~~~
Post-Transient Simulation Summary
~~~~~~~~~~~~~~~~~~~~~~~~~~~~~~~~~
   -   To further speed up simulation, consider
          add ++aps on command line
~~~~~~~~~~~~~~~~~~~~~~~~~~~~~~~~~


During simulation, the CPU load for active processors is :
        Spectre  0 (78.0 %)      1 (61.0 %)      2 (100.0 %)     3 (59.0 %)
        Other   
Initial condition solution time: CPU = 532 us, elapsed = 534.058 us.
Intrinsic tran analysis time:    CPU = 8.562 ms, elapsed = 47.672 ms.
Total time required for tran analysis `DifTempo-000_DifTempo': CPU = 10.455 ms, elapsed = 49.561 ms.
Time accumulated: CPU = 268.162 ms, elapsed = 449.012 ms.
Peak resident memory used = 64.2 Mbytes.


Notice from spectre during task `MDLControl'.
    27 notices suppressed.


****************************************************************
Transient Analysis `DifTempo-001_DifTempo': time = (0 s -> 3 ns)
****************************************************************
DC simulation time: CPU = 258 us, elapsed = 259.161 us.

Notice from spectre during transient analysis `DifTempo-001_DifTempo', during task `MDLControl'.
    No outputs were found. Loosening output filter criterion to `allpub'.


Opening the PSF file inv1.raw/DifTempo-001_DifTempo.tran.tran ...
Important parameter values:
    start = 0 s
    outputstart = 0 s
    stop = 3 ns
    step = 3 ps
    maxstep = 60 ps
    ic = all
    useprevic = no
    skipdc = no
    reltol = 1e-03
    abstol(V) = 1 uV
    abstol(I) = 1 pA
    temp = 27 C
    tnom = 27 C
    tempeffects = all
    errpreset = moderate
    method = traponly
    lteratio = 3.5
    relref = sigglobal
    cmin = 0 F
    gmin = 1 pS


Output and IC/nodeset summary:
                 save   2       (current)
                 save   3       (voltage)

........9........8........7........6.

Notice from spectre at time = 1.30382 ns during transient analysis `DifTempo-001_DifTempo', during task `MDLControl'.
    Found trapezoidal ringing on node Vd:p.

........9........8........7........6...

Notice from spectre at time = 1.36382 ns during transient analysis `DifTempo-001_DifTempo', during task `MDLControl'.
    Found trapezoidal ringing on node Vd:p.

........9........8........7........6.....

Notice from spectre at time = 1.42382 ns during transient analysis `DifTempo-001_DifTempo', during task `MDLControl'.
    Found trapezoidal ringing on node Vd:p.

........9........8........7........6.......

Notice from spectre at time = 1.48382 ns during transient analysis `DifTempo-001_DifTempo', during task `MDLControl'.
    Found trapezoidal ringing on node Vd:p.

........9........8........7........6........5

Notice from spectre at time = 1.54382 ns during transient analysis `DifTempo-001_DifTempo', during task `MDLControl'.
    Found trapezoidal ringing on node Vd:p.
        Further occurrences of this notice will be suppressed.

........9........8........7........6........5........4........3........2........1........0
Number of accepted tran steps =             83

Notice from spectre during transient analysis `DifTempo-001_DifTempo', during task `MDLControl'.
    Trapezoidal ringing is detected during tran analysis.
        Please use method=trap for better results and performance.


Maximum value achieved for any signal of each quantity: 
V: V(X1.M_i_1:dbnode) = 1 V
I: I(Vd:p) = 50.61 uA
If your circuit contains signals of the same quantity that are vastly different in size (such as high voltage circuitry combined with low voltage control circuitry), you should consider specifying global option `bin_relref=yes'.

~~~~~~~~~~~~~~~~~~~~~~~~~~~~~~~~~
Post-Transient Simulation Summary
~~~~~~~~~~~~~~~~~~~~~~~~~~~~~~~~~
   -   To further speed up simulation, consider
          add ++aps on command line
~~~~~~~~~~~~~~~~~~~~~~~~~~~~~~~~~


During simulation, the CPU load for active processors is :
        Spectre  0 (83.0 %)      1 (55.8 %)      2 (100.0 %)     3 (52.0 %)
        Other   
Initial condition solution time: CPU = 317 us, elapsed = 319.004 us.
Intrinsic tran analysis time:    CPU = 9.087 ms, elapsed = 33.0441 ms.
Total time required for tran analysis `DifTempo-001_DifTempo': CPU = 10.491 ms, elapsed = 34.4501 ms.
Time accumulated: CPU = 286.55 ms, elapsed = 567.763 ms.
Peak resident memory used = 64.3 Mbytes.


Notice from spectre during task `MDLControl'.
    25 notices suppressed.


****************************************************************
Transient Analysis `DifTempo-002_DifTempo': time = (0 s -> 3 ns)
****************************************************************
DC simulation time: CPU = 251 us, elapsed = 251.055 us.

Notice from spectre during transient analysis `DifTempo-002_DifTempo', during task `MDLControl'.
    No outputs were found. Loosening output filter criterion to `allpub'.


Opening the PSF file inv1.raw/DifTempo-002_DifTempo.tran.tran ...
Important parameter values:
    start = 0 s
    outputstart = 0 s
    stop = 3 ns
    step = 3 ps
    maxstep = 60 ps
    ic = all
    useprevic = no
    skipdc = no
    reltol = 1e-03
    abstol(V) = 1 uV
    abstol(I) = 1 pA
    temp = 27 C
    tnom = 27 C
    tempeffects = all
    errpreset = moderate
    method = traponly
    lteratio = 3.5
    relref = sigglobal
    cmin = 0 F
    gmin = 1 pS


Output and IC/nodeset summary:
                 save   2       (current)
                 save   3       (voltage)

........9........8........7........6....

Notice from spectre at time = 1.40594 ns during transient analysis `DifTempo-002_DifTempo', during task `MDLControl'.
    Found trapezoidal ringing on node Va:p.

........9........8........7........6......

Notice from spectre at time = 1.46594 ns during transient analysis `DifTempo-002_DifTempo', during task `MDLControl'.
    Found trapezoidal ringing on node Va:p.

........9........8........7........6........

Notice from spectre at time = 1.52594 ns during transient analysis `DifTempo-002_DifTempo', during task `MDLControl'.
    Found trapezoidal ringing on node Va:p.

........9........8........7........6........5.

Notice from spectre at time = 1.58594 ns during transient analysis `DifTempo-002_DifTempo', during task `MDLControl'.
    Found trapezoidal ringing on node Va:p.

........9........8........7........6........5...

Notice from spectre at time = 1.64594 ns during transient analysis `DifTempo-002_DifTempo', during task `MDLControl'.
    Found trapezoidal ringing on node Va:p.
        Further occurrences of this notice will be suppressed.

........9........8........7........6........5........4........3........2........1........0
Number of accepted tran steps =             85

Notice from spectre during transient analysis `DifTempo-002_DifTempo', during task `MDLControl'.
    Trapezoidal ringing is detected during tran analysis.
        Please use method=trap for better results and performance.


Maximum value achieved for any signal of each quantity: 
V: V(X1.M_i_1:dbnode) = 1 V
I: I(Vd:p) = 33.63 uA
If your circuit contains signals of the same quantity that are vastly different in size (such as high voltage circuitry combined with low voltage control circuitry), you should consider specifying global option `bin_relref=yes'.

~~~~~~~~~~~~~~~~~~~~~~~~~~~~~~~~~
Post-Transient Simulation Summary
~~~~~~~~~~~~~~~~~~~~~~~~~~~~~~~~~
   -   To further speed up simulation, consider
          add ++aps on command line
~~~~~~~~~~~~~~~~~~~~~~~~~~~~~~~~~


During simulation, the CPU load for active processors is :
        Spectre  0 (86.4 %)      1 (51.6 %)      2 (100.0 %)     3 (46.9 %)
        Other   
Initial condition solution time: CPU = 303 us, elapsed = 308.037 us.
Intrinsic tran analysis time:    CPU = 9.09 ms, elapsed = 33.0338 ms.
Total time required for tran analysis `DifTempo-002_DifTempo': CPU = 10.539 ms, elapsed = 34.6072 ms.
Time accumulated: CPU = 304.392 ms, elapsed = 692.188 ms.
Peak resident memory used = 64.3 Mbytes.


Notice from spectre during task `MDLControl'.
    23 notices suppressed.


****************************************************************
Transient Analysis `DifTempo-003_DifTempo': time = (0 s -> 3 ns)
****************************************************************
DC simulation time: CPU = 306 us, elapsed = 307.083 us.

Notice from spectre during transient analysis `DifTempo-003_DifTempo', during task `MDLControl'.
    No outputs were found. Loosening output filter criterion to `allpub'.


Opening the PSF file inv1.raw/DifTempo-003_DifTempo.tran.tran ...
Important parameter values:
    start = 0 s
    outputstart = 0 s
    stop = 3 ns
    step = 3 ps
    maxstep = 60 ps
    ic = all
    useprevic = no
    skipdc = no
    reltol = 1e-03
    abstol(V) = 1 uV
    abstol(I) = 1 pA
    temp = 27 C
    tnom = 27 C
    tempeffects = all
    errpreset = moderate
    method = traponly
    lteratio = 3.5
    relref = sigglobal
    cmin = 0 F
    gmin = 1 pS


Output and IC/nodeset summary:
                 save   2       (current)
                 save   3       (voltage)

........9........8........7........6...

Notice from spectre at time = 1.3125 ns during transient analysis `DifTempo-003_DifTempo', during task `MDLControl'.
    Found trapezoidal ringing on node Va:p.

........9........8........7........6........5

Notice from spectre at time = 1.55266 ns during transient analysis `DifTempo-003_DifTempo', during task `MDLControl'.
    Found trapezoidal ringing on node Vd:p.

........9........8........7........6........5..

Notice from spectre at time = 1.61266 ns during transient analysis `DifTempo-003_DifTempo', during task `MDLControl'.
    Found trapezoidal ringing on node Vd:p.

........9........8........7........6........5...

Notice from spectre at time = 1.67266 ns during transient analysis `DifTempo-003_DifTempo', during task `MDLControl'.
    Found trapezoidal ringing on node Vd:p.

........9........8........7........6........5.....

Notice from spectre at time = 1.73266 ns during transient analysis `DifTempo-003_DifTempo', during task `MDLControl'.
    Found trapezoidal ringing on node Vd:p.
        Further occurrences of this notice will be suppressed.

........9........8........7........6........5........4........3........2........1........0
Number of accepted tran steps =             82

Notice from spectre during transient analysis `DifTempo-003_DifTempo', during task `MDLControl'.
    Trapezoidal ringing is detected during tran analysis.
        Please use method=trap for better results and performance.


Maximum value achieved for any signal of each quantity: 
V: V(out) = 1 V
I: I(Vd:p) = 20.46 uA
If your circuit contains signals of the same quantity that are vastly different in size (such as high voltage circuitry combined with low voltage control circuitry), you should consider specifying global option `bin_relref=yes'.

~~~~~~~~~~~~~~~~~~~~~~~~~~~~~~~~~
Post-Transient Simulation Summary
~~~~~~~~~~~~~~~~~~~~~~~~~~~~~~~~~
   -   To further speed up simulation, consider
          add ++aps on command line
~~~~~~~~~~~~~~~~~~~~~~~~~~~~~~~~~


During simulation, the CPU load for active processors is :
        Spectre  0 (88.5 %)      1 (50.6 %)      2 (100.0 %)     3 (46.8 %)
        Other   
Initial condition solution time: CPU = 348 us, elapsed = 349.998 us.
Intrinsic tran analysis time:    CPU = 9.095 ms, elapsed = 33.0951 ms.
Total time required for tran analysis `DifTempo-003_DifTempo': CPU = 10.687 ms, elapsed = 34.6861 ms.
Time accumulated: CPU = 322.542 ms, elapsed = 817.73 ms.
Peak resident memory used = 64.4 Mbytes.


Notice from spectre during task `MDLControl'.
    22 notices suppressed.


****************************************************************
Transient Analysis `DifTempo-004_DifTempo': time = (0 s -> 3 ns)
****************************************************************
DC simulation time: CPU = 257 us, elapsed = 257.015 us.

Notice from spectre during transient analysis `DifTempo-004_DifTempo', during task `MDLControl'.
    No outputs were found. Loosening output filter criterion to `allpub'.


Opening the PSF file inv1.raw/DifTempo-004_DifTempo.tran.tran ...
Important parameter values:
    start = 0 s
    outputstart = 0 s
    stop = 3 ns
    step = 3 ps
    maxstep = 60 ps
    ic = all
    useprevic = no
    skipdc = no
    reltol = 1e-03
    abstol(V) = 1 uV
    abstol(I) = 1 pA
    temp = 27 C
    tnom = 27 C
    tempeffects = all
    errpreset = moderate
    method = traponly
    lteratio = 3.5
    relref = sigglobal
    cmin = 0 F
    gmin = 1 pS


Output and IC/nodeset summary:
                 save   2       (current)
                 save   3       (voltage)

........9........8........7........6........5........4..

Notice from spectre at time = 1.92608 ns during transient analysis `DifTempo-004_DifTempo', during task `MDLControl'.
    Found trapezoidal ringing on node out.

........9........8........7........6........5........4........3........2

Notice from spectre at time = 2.46608 ns during transient analysis `DifTempo-004_DifTempo', during task `MDLControl'.
    Found trapezoidal ringing on node Vd:p.

........9........8........7........6........5........4........3........2..

Notice from spectre at time = 2.52608 ns during transient analysis `DifTempo-004_DifTempo', during task `MDLControl'.
    Found trapezoidal ringing on node Vd:p.

........9........8........7........6........5........4........3........2....

Notice from spectre at time = 2.58608 ns during transient analysis `DifTempo-004_DifTempo', during task `MDLControl'.
    Found trapezoidal ringing on node Vd:p.

........9........8........7........6........5........4........3........2......

Notice from spectre at time = 2.64608 ns during transient analysis `DifTempo-004_DifTempo', during task `MDLControl'.
    Found trapezoidal ringing on node Vd:p.
        Further occurrences of this notice will be suppressed.

........9........8........7........6........5........4........3........2........1........0
Number of accepted tran steps =             76

Notice from spectre during transient analysis `DifTempo-004_DifTempo', during task `MDLControl'.
    Trapezoidal ringing is detected during tran analysis.
        Please use method=trap for better results and performance.


Maximum value achieved for any signal of each quantity: 
V: V(out) = 1 V
I: I(Vd:p) = 12.12 uA
If your circuit contains signals of the same quantity that are vastly different in size (such as high voltage circuitry combined with low voltage control circuitry), you should consider specifying global option `bin_relref=yes'.

~~~~~~~~~~~~~~~~~~~~~~~~~~~~~~~~~
Post-Transient Simulation Summary
~~~~~~~~~~~~~~~~~~~~~~~~~~~~~~~~~
   -   To further speed up simulation, consider
          add ++aps on command line
~~~~~~~~~~~~~~~~~~~~~~~~~~~~~~~~~


During simulation, the CPU load for active processors is :
        Spectre  0 (90.0 %)      1 (48.3 %)      2 (100.0 %)     3 (44.3 %)
        Other   
Initial condition solution time: CPU = 304 us, elapsed = 304.937 us.
Intrinsic tran analysis time:    CPU = 10.522 ms, elapsed = 39.1669 ms.
Total time required for tran analysis `DifTempo-004_DifTempo': CPU = 11.978 ms, elapsed = 40.7169 ms.
Time accumulated: CPU = 341.826 ms, elapsed = 940.105 ms.
Peak resident memory used = 64.4 Mbytes.


Notice from spectre during task `MDLControl'.
    6 notices suppressed.


****************************************************************
Transient Analysis `DifTempo-005_DifTempo': time = (0 s -> 3 ns)
****************************************************************
DC simulation time: CPU = 255 us, elapsed = 256.062 us.

Notice from spectre during transient analysis `DifTempo-005_DifTempo', during task `MDLControl'.
    No outputs were found. Loosening output filter criterion to `allpub'.


Opening the PSF file inv1.raw/DifTempo-005_DifTempo.tran.tran ...
Important parameter values:
    start = 0 s
    outputstart = 0 s
    stop = 3 ns
    step = 3 ps
    maxstep = 60 ps
    ic = all
    useprevic = no
    skipdc = no
    reltol = 1e-03
    abstol(V) = 1 uV
    abstol(I) = 1 pA
    temp = 27 C
    tnom = 27 C
    tempeffects = all
    errpreset = moderate
    method = traponly
    lteratio = 3.5
    relref = sigglobal
    cmin = 0 F
    gmin = 1 pS


Output and IC/nodeset summary:
                 save   2       (current)
                 save   3       (voltage)

........9........8........7........6........5........4....

Notice from spectre at time = 1.98671 ns during transient analysis `DifTempo-005_DifTempo', during task `MDLControl'.
    Found trapezoidal ringing on node Va:p.

........9........8........7........6........5........4......

Notice from spectre at time = 2.04671 ns during transient analysis `DifTempo-005_DifTempo', during task `MDLControl'.
    Found trapezoidal ringing on node Va:p.

........9........8........7........6........5........4.......

Notice from spectre at time = 2.10671 ns during transient analysis `DifTempo-005_DifTempo', during task `MDLControl'.
    Found trapezoidal ringing on node Va:p.

........9........8........7........6........5........4........3

Notice from spectre at time = 2.1275 ns during transient analysis `DifTempo-005_DifTempo', during task `MDLControl'.
    Found trapezoidal ringing on node Va:p.

........9........8........7........6........5........4........3........2.....

Notice from spectre at time = 2.63464 ns during transient analysis `DifTempo-005_DifTempo', during task `MDLControl'.
    Found trapezoidal ringing on node Vd:p.
        Further occurrences of this notice will be suppressed.

........9........8........7........6........5........4........3........2........1........0
Number of accepted tran steps =             76

Notice from spectre during transient analysis `DifTempo-005_DifTempo', during task `MDLControl'.
    Trapezoidal ringing is detected during tran analysis.
        Please use method=trap for better results and performance.


Maximum value achieved for any signal of each quantity: 
V: V(out) = 1 V
I: I(Vd:p) = 6.806 uA
If your circuit contains signals of the same quantity that are vastly different in size (such as high voltage circuitry combined with low voltage control circuitry), you should consider specifying global option `bin_relref=yes'.

~~~~~~~~~~~~~~~~~~~~~~~~~~~~~~~~~
Post-Transient Simulation Summary
~~~~~~~~~~~~~~~~~~~~~~~~~~~~~~~~~
   -   To further speed up simulation, consider
          add ++aps on command line
~~~~~~~~~~~~~~~~~~~~~~~~~~~~~~~~~


During simulation, the CPU load for active processors is :
        Spectre  0 (91.3 %)      1 (48.5 %)      2 (100.0 %)     3 (42.6 %)
        Other   
Initial condition solution time: CPU = 294 us, elapsed = 294.924 us.
Intrinsic tran analysis time:    CPU = 9.202 ms, elapsed = 34.673 ms.
Total time required for tran analysis `DifTempo-005_DifTempo': CPU = 10.764 ms, elapsed = 36.284 ms.
Time accumulated: CPU = 359.76 ms, elapsed = 1.0607 s.
Peak resident memory used = 64.4 Mbytes.


Notice from spectre during task `MDLControl'.
    7 notices suppressed.


****************************************************************
Transient Analysis `DifTempo-006_DifTempo': time = (0 s -> 3 ns)
****************************************************************
DC simulation time: CPU = 256 us, elapsed = 257.015 us.

Notice from spectre during transient analysis `DifTempo-006_DifTempo', during task `MDLControl'.
    No outputs were found. Loosening output filter criterion to `allpub'.


Opening the PSF file inv1.raw/DifTempo-006_DifTempo.tran.tran ...
Important parameter values:
    start = 0 s
    outputstart = 0 s
    stop = 3 ns
    step = 3 ps
    maxstep = 60 ps
    ic = all
    useprevic = no
    skipdc = no
    reltol = 1e-03
    abstol(V) = 1 uV
    abstol(I) = 1 pA
    temp = 27 C
    tnom = 27 C
    tempeffects = all
    errpreset = moderate
    method = traponly
    lteratio = 3.5
    relref = sigglobal
    cmin = 0 F
    gmin = 1 pS


Output and IC/nodeset summary:
                 save   2       (current)
                 save   3       (voltage)

........9........8........7........6.

Notice from spectre at time = 1.30992 ns during transient analysis `DifTempo-006_DifTempo', during task `MDLControl'.
    Found trapezoidal ringing on node Va:p.

........9........8........7........6...

Notice from spectre at time = 1.36992 ns during transient analysis `DifTempo-006_DifTempo', during task `MDLControl'.
    Found trapezoidal ringing on node Va:p.

........9........8........7........6.....

Notice from spectre at time = 1.42992 ns during transient analysis `DifTempo-006_DifTempo', during task `MDLControl'.
    Found trapezoidal ringing on node Va:p.

........9........8........7........6.......

Notice from spectre at time = 1.48992 ns during transient analysis `DifTempo-006_DifTempo', during task `MDLControl'.
    Found trapezoidal ringing on node Va:p.

........9........8........7........6........5........4........3........2......

Notice from spectre at time = 2.67113 ns during transient analysis `DifTempo-006_DifTempo', during task `MDLControl'.
    Found trapezoidal ringing on node Vd:p.
        Further occurrences of this notice will be suppressed.

........9........8........7........6........5........4........3........2........1........0
Number of accepted tran steps =             64

Notice from spectre during transient analysis `DifTempo-006_DifTempo', during task `MDLControl'.
    Trapezoidal ringing is detected during tran analysis.
        Please use method=trap for better results and performance.


Maximum value achieved for any signal of each quantity: 
V: V(X1.M_i_1:dbnode) = 1 V
I: I(Vd:p) = 4.191 uA
If your circuit contains signals of the same quantity that are vastly different in size (such as high voltage circuitry combined with low voltage control circuitry), you should consider specifying global option `bin_relref=yes'.

~~~~~~~~~~~~~~~~~~~~~~~~~~~~~~~~~
Post-Transient Simulation Summary
~~~~~~~~~~~~~~~~~~~~~~~~~~~~~~~~~
   -   To further speed up simulation, consider
          add ++aps on command line
~~~~~~~~~~~~~~~~~~~~~~~~~~~~~~~~~


During simulation, the CPU load for active processors is :
        Spectre  0 (92.1 %)      1 (46.9 %)      2 (100.0 %)     3 (42.0 %)
        Other   
Initial condition solution time: CPU = 305 us, elapsed = 311.852 us.
Intrinsic tran analysis time:    CPU = 8.1 ms, elapsed = 32.202 ms.
Total time required for tran analysis `DifTempo-006_DifTempo': CPU = 9.579 ms, elapsed = 33.798 ms.
Time accumulated: CPU = 376.456 ms, elapsed = 1.17491 s.
Peak resident memory used = 64.4 Mbytes.


Notice from spectre during task `MDLControl'.
    6 notices suppressed.


****************************************************************
Transient Analysis `DifTempo-007_DifTempo': time = (0 s -> 3 ns)
****************************************************************
DC simulation time: CPU = 248 us, elapsed = 249.147 us.

Notice from spectre during transient analysis `DifTempo-007_DifTempo', during task `MDLControl'.
    No outputs were found. Loosening output filter criterion to `allpub'.


Opening the PSF file inv1.raw/DifTempo-007_DifTempo.tran.tran ...
Important parameter values:
    start = 0 s
    outputstart = 0 s
    stop = 3 ns
    step = 3 ps
    maxstep = 60 ps
    ic = all
    useprevic = no
    skipdc = no
    reltol = 1e-03
    abstol(V) = 1 uV
    abstol(I) = 1 pA
    temp = 27 C
    tnom = 27 C
    tempeffects = all
    errpreset = moderate
    method = traponly
    lteratio = 3.5
    relref = sigglobal
    cmin = 0 F
    gmin = 1 pS


Output and IC/nodeset summary:
                 save   2       (current)
                 save   3       (voltage)

........9........8........7......

Notice from spectre at time = 1.13385 ns during transient analysis `DifTempo-007_DifTempo', during task `MDLControl'.
    Found trapezoidal ringing on node Vd:p.

........9........8........7.......

Notice from spectre at time = 1.19311 ns during transient analysis `DifTempo-007_DifTempo', during task `MDLControl'.
    Found trapezoidal ringing on node Vd:p.

........9........8........7........6

Notice from spectre at time = 1.25311 ns during transient analysis `DifTempo-007_DifTempo', during task `MDLControl'.
    Found trapezoidal ringing on node Vd:p.

........9........8........7........6..

Notice from spectre at time = 1.31311 ns during transient analysis `DifTempo-007_DifTempo', during task `MDLControl'.
    Found trapezoidal ringing on node Vd:p.

........9........8........7........6...

Notice from spectre at time = 1.37311 ns during transient analysis `DifTempo-007_DifTempo', during task `MDLControl'.
    Found trapezoidal ringing on node Vd:p.
        Further occurrences of this notice will be suppressed.

........9........8........7........6........5........4........3........2........1........0
Number of accepted tran steps =             84

Notice from spectre during transient analysis `DifTempo-007_DifTempo', during task `MDLControl'.
    Trapezoidal ringing is detected during tran analysis.
        Please use method=trap for better results and performance.


Maximum value achieved for any signal of each quantity: 
V: V(X1.M_i_1:dbnode) = 1 V
I: I(Vd:p) = 91.21 uA
If your circuit contains signals of the same quantity that are vastly different in size (such as high voltage circuitry combined with low voltage control circuitry), you should consider specifying global option `bin_relref=yes'.

~~~~~~~~~~~~~~~~~~~~~~~~~~~~~~~~~
Post-Transient Simulation Summary
~~~~~~~~~~~~~~~~~~~~~~~~~~~~~~~~~
   -   To further speed up simulation, consider
          add ++aps on command line
~~~~~~~~~~~~~~~~~~~~~~~~~~~~~~~~~


During simulation, the CPU load for active processors is :
        Spectre  0 (93.1 %)      1 (45.0 %)      2 (100.0 %)     3 (38.3 %)
        Other   
Initial condition solution time: CPU = 292 us, elapsed = 293.016 us.
Intrinsic tran analysis time:    CPU = 8.188 ms, elapsed = 31.565 ms.
Total time required for tran analysis `DifTempo-007_DifTempo': CPU = 9.555 ms, elapsed = 32.933 ms.
Time accumulated: CPU = 394.796 ms, elapsed = 1.34077 s.
Peak resident memory used = 64.4 Mbytes.


Notice from spectre during task `MDLControl'.
    28 notices suppressed.


****************************************************************
Transient Analysis `DifTempo-008_DifTempo': time = (0 s -> 3 ns)
****************************************************************
DC simulation time: CPU = 258 us, elapsed = 257.969 us.

Notice from spectre during transient analysis `DifTempo-008_DifTempo', during task `MDLControl'.
    No outputs were found. Loosening output filter criterion to `allpub'.


Opening the PSF file inv1.raw/DifTempo-008_DifTempo.tran.tran ...
Important parameter values:
    start = 0 s
    outputstart = 0 s
    stop = 3 ns
    step = 3 ps
    maxstep = 60 ps
    ic = all
    useprevic = no
    skipdc = no
    reltol = 1e-03
    abstol(V) = 1 uV
    abstol(I) = 1 pA
    temp = 27 C
    tnom = 27 C
    tempeffects = all
    errpreset = moderate
    method = traponly
    lteratio = 3.5
    relref = sigglobal
    cmin = 0 F
    gmin = 1 pS


Output and IC/nodeset summary:
                 save   2       (current)
                 save   3       (voltage)

........9........8........7........6.

Notice from spectre at time = 1.28107 ns during transient analysis `DifTempo-008_DifTempo', during task `MDLControl'.
    Found trapezoidal ringing on node Vd:p.

........9........8........7........6..

Notice from spectre at time = 1.34107 ns during transient analysis `DifTempo-008_DifTempo', during task `MDLControl'.
    Found trapezoidal ringing on node Vd:p.

........9........8........7........6....

Notice from spectre at time = 1.40107 ns during transient analysis `DifTempo-008_DifTempo', during task `MDLControl'.
    Found trapezoidal ringing on node Vd:p.

........9........8........7........6......

Notice from spectre at time = 1.46107 ns during transient analysis `DifTempo-008_DifTempo', during task `MDLControl'.
    Found trapezoidal ringing on node Vd:p.

........9........8........7........6........

Notice from spectre at time = 1.52107 ns during transient analysis `DifTempo-008_DifTempo', during task `MDLControl'.
    Found trapezoidal ringing on node Vd:p.
        Further occurrences of this notice will be suppressed.

........9........8........7........6........5........4........3........2........1........0
Number of accepted tran steps =             82

Notice from spectre during transient analysis `DifTempo-008_DifTempo', during task `MDLControl'.
    Trapezoidal ringing is detected during tran analysis.
        Please use method=trap for better results and performance.


Maximum value achieved for any signal of each quantity: 
V: V(X1.M_i_1:dbnode) = 1 V
I: I(Vd:p) = 57.18 uA
If your circuit contains signals of the same quantity that are vastly different in size (such as high voltage circuitry combined with low voltage control circuitry), you should consider specifying global option `bin_relref=yes'.

~~~~~~~~~~~~~~~~~~~~~~~~~~~~~~~~~
Post-Transient Simulation Summary
~~~~~~~~~~~~~~~~~~~~~~~~~~~~~~~~~
   -   To further speed up simulation, consider
          add ++aps on command line
~~~~~~~~~~~~~~~~~~~~~~~~~~~~~~~~~


During simulation, the CPU load for active processors is :
        Spectre  0 (93.7 %)      1 (44.0 %)      2 (100.0 %)     3 (37.6 %)
        Other   
Initial condition solution time: CPU = 301 us, elapsed = 302.076 us.
Intrinsic tran analysis time:    CPU = 9.511 ms, elapsed = 38.111 ms.
Total time required for tran analysis `DifTempo-008_DifTempo': CPU = 10.901 ms, elapsed = 39.5 ms.
Time accumulated: CPU = 413.003 ms, elapsed = 1.46433 s.
Peak resident memory used = 64.4 Mbytes.


Notice from spectre during task `MDLControl'.
    25 notices suppressed.


****************************************************************
Transient Analysis `DifTempo-009_DifTempo': time = (0 s -> 3 ns)
****************************************************************
DC simulation time: CPU = 264 us, elapsed = 265.121 us.

Notice from spectre during transient analysis `DifTempo-009_DifTempo', during task `MDLControl'.
    No outputs were found. Loosening output filter criterion to `allpub'.


Opening the PSF file inv1.raw/DifTempo-009_DifTempo.tran.tran ...
Important parameter values:
    start = 0 s
    outputstart = 0 s
    stop = 3 ns
    step = 3 ps
    maxstep = 60 ps
    ic = all
    useprevic = no
    skipdc = no
    reltol = 1e-03
    abstol(V) = 1 uV
    abstol(I) = 1 pA
    temp = 27 C
    tnom = 27 C
    tempeffects = all
    errpreset = moderate
    method = traponly
    lteratio = 3.5
    relref = sigglobal
    cmin = 0 F
    gmin = 1 pS


Output and IC/nodeset summary:
                 save   2       (current)
                 save   3       (voltage)

........9........8........7........6......

Notice from spectre at time = 1.4703 ns during transient analysis `DifTempo-009_DifTempo', during task `MDLControl'.
    Found trapezoidal ringing on node Vd:p.

........9........8........7........6........

Notice from spectre at time = 1.5303 ns during transient analysis `DifTempo-009_DifTempo', during task `MDLControl'.
    Found trapezoidal ringing on node Vd:p.

........9........8........7........6........5.

Notice from spectre at time = 1.5903 ns during transient analysis `DifTempo-009_DifTempo', during task `MDLControl'.
    Found trapezoidal ringing on node Vd:p.

........9........8........7........6........5...

Notice from spectre at time = 1.6503 ns during transient analysis `DifTempo-009_DifTempo', during task `MDLControl'.
    Found trapezoidal ringing on node Vd:p.

........9........8........7........6........5.....

Notice from spectre at time = 1.7103 ns during transient analysis `DifTempo-009_DifTempo', during task `MDLControl'.
    Found trapezoidal ringing on node Vd:p.
        Further occurrences of this notice will be suppressed.

........9........8........7........6........5........4........3........2........1........0
Number of accepted tran steps =             83

Notice from spectre during transient analysis `DifTempo-009_DifTempo', during task `MDLControl'.
    Trapezoidal ringing is detected during tran analysis.
        Please use method=trap for better results and performance.


Maximum value achieved for any signal of each quantity: 
V: V(X1.M_i_1:dbnode) = 1 V
I: I(Vd:p) = 38.85 uA
If your circuit contains signals of the same quantity that are vastly different in size (such as high voltage circuitry combined with low voltage control circuitry), you should consider specifying global option `bin_relref=yes'.

~~~~~~~~~~~~~~~~~~~~~~~~~~~~~~~~~
Post-Transient Simulation Summary
~~~~~~~~~~~~~~~~~~~~~~~~~~~~~~~~~
   -   To further speed up simulation, consider
          add ++aps on command line
~~~~~~~~~~~~~~~~~~~~~~~~~~~~~~~~~


During simulation, the CPU load for active processors is :
        Spectre  0 (94.2 %)      1 (42.2 %)      2 (100.0 %)     3 (37.3 %)
        Other   
Initial condition solution time: CPU = 316 us, elapsed = 323.057 us.
Intrinsic tran analysis time:    CPU = 10.137 ms, elapsed = 39.9861 ms.
Total time required for tran analysis `DifTempo-009_DifTempo': CPU = 11.641 ms, elapsed = 41.6229 ms.
Time accumulated: CPU = 432.315 ms, elapsed = 1.5913 s.
Peak resident memory used = 64.4 Mbytes.


Notice from spectre during task `MDLControl'.
    22 notices suppressed.


****************************************************************
Transient Analysis `DifTempo-010_DifTempo': time = (0 s -> 3 ns)
****************************************************************
DC simulation time: CPU = 259 us, elapsed = 260.115 us.

Notice from spectre during transient analysis `DifTempo-010_DifTempo', during task `MDLControl'.
    No outputs were found. Loosening output filter criterion to `allpub'.


Opening the PSF file inv1.raw/DifTempo-010_DifTempo.tran.tran ...
Important parameter values:
    start = 0 s
    outputstart = 0 s
    stop = 3 ns
    step = 3 ps
    maxstep = 60 ps
    ic = all
    useprevic = no
    skipdc = no
    reltol = 1e-03
    abstol(V) = 1 uV
    abstol(I) = 1 pA
    temp = 27 C
    tnom = 27 C
    tempeffects = all
    errpreset = moderate
    method = traponly
    lteratio = 3.5
    relref = sigglobal
    cmin = 0 F
    gmin = 1 pS


Output and IC/nodeset summary:
                 save   2       (current)
                 save   3       (voltage)

........9........8........7........6........5

Notice from spectre at time = 1.57496 ns during transient analysis `DifTempo-010_DifTempo', during task `MDLControl'.
    Found trapezoidal ringing on node Vd:p.

........9........8........7........6........5..

Notice from spectre at time = 1.63496 ns during transient analysis `DifTempo-010_DifTempo', during task `MDLControl'.
    Found trapezoidal ringing on node Vd:p.

........9........8........7........6........5....

Notice from spectre at time = 1.69496 ns during transient analysis `DifTempo-010_DifTempo', during task `MDLControl'.
    Found trapezoidal ringing on node Vd:p.

........9........8........7........6........5......

Notice from spectre at time = 1.75496 ns during transient analysis `DifTempo-010_DifTempo', during task `MDLControl'.
    Found trapezoidal ringing on node Vd:p.

........9........8........7........6........5........

Notice from spectre at time = 1.81496 ns during transient analysis `DifTempo-010_DifTempo', during task `MDLControl'.
    Found trapezoidal ringing on node Vd:p.
        Further occurrences of this notice will be suppressed.

........9........8........7........6........5........4........3........2........1........0
Number of accepted tran steps =             81

Notice from spectre during transient analysis `DifTempo-010_DifTempo', during task `MDLControl'.
    Trapezoidal ringing is detected during tran analysis.
        Please use method=trap for better results and performance.


Maximum value achieved for any signal of each quantity: 
V: V(out) = 1 V
I: I(Vd:p) = 23.66 uA
If your circuit contains signals of the same quantity that are vastly different in size (such as high voltage circuitry combined with low voltage control circuitry), you should consider specifying global option `bin_relref=yes'.

~~~~~~~~~~~~~~~~~~~~~~~~~~~~~~~~~
Post-Transient Simulation Summary
~~~~~~~~~~~~~~~~~~~~~~~~~~~~~~~~~
   -   To further speed up simulation, consider
          add ++aps on command line
~~~~~~~~~~~~~~~~~~~~~~~~~~~~~~~~~


During simulation, the CPU load for active processors is :
        Spectre  0 (94.6 %)      1 (41.8 %)      2 (100.0 %)     3 (36.4 %)
        Other   
Initial condition solution time: CPU = 302 us, elapsed = 303.984 us.
Intrinsic tran analysis time:    CPU = 8.9 ms, elapsed = 33.1709 ms.
Total time required for tran analysis `DifTempo-010_DifTempo': CPU = 10.27 ms, elapsed = 34.5418 ms.
Time accumulated: CPU = 449.81 ms, elapsed = 1.71196 s.
Peak resident memory used = 64.4 Mbytes.


Notice from spectre during task `MDLControl'.
    20 notices suppressed.


****************************************************************
Transient Analysis `DifTempo-011_DifTempo': time = (0 s -> 3 ns)
****************************************************************
DC simulation time: CPU = 255 us, elapsed = 254.869 us.

Notice from spectre during transient analysis `DifTempo-011_DifTempo', during task `MDLControl'.
    No outputs were found. Loosening output filter criterion to `allpub'.


Opening the PSF file inv1.raw/DifTempo-011_DifTempo.tran.tran ...
Important parameter values:
    start = 0 s
    outputstart = 0 s
    stop = 3 ns
    step = 3 ps
    maxstep = 60 ps
    ic = all
    useprevic = no
    skipdc = no
    reltol = 1e-03
    abstol(V) = 1 uV
    abstol(I) = 1 pA
    temp = 27 C
    tnom = 27 C
    tempeffects = all
    errpreset = moderate
    method = traponly
    lteratio = 3.5
    relref = sigglobal
    cmin = 0 F
    gmin = 1 pS


Output and IC/nodeset summary:
                 save   2       (current)
                 save   3       (voltage)

........9........8........7........6........5..

Notice from spectre at time = 1.59375 ns during transient analysis `DifTempo-011_DifTempo', during task `MDLControl'.
    Found trapezoidal ringing on node Vd:p.

........9........8........7........6........5........4........3.....

Notice from spectre at time = 2.33042 ns during transient analysis `DifTempo-011_DifTempo', during task `MDLControl'.
    Found trapezoidal ringing on node Vd:p.

........9........8........7........6........5........4........3.......

Notice from spectre at time = 2.39042 ns during transient analysis `DifTempo-011_DifTempo', during task `MDLControl'.
    Found trapezoidal ringing on node Vd:p.

........9........8........7........6........5........4........3........2

Notice from spectre at time = 2.45042 ns during transient analysis `DifTempo-011_DifTempo', during task `MDLControl'.
    Found trapezoidal ringing on node Vd:p.

........9........8........7........6........5........4........3........2..

Notice from spectre at time = 2.51042 ns during transient analysis `DifTempo-011_DifTempo', during task `MDLControl'.
    Found trapezoidal ringing on node Vd:p.
        Further occurrences of this notice will be suppressed.

........9........8........7........6........5........4........3........2........1........0
Number of accepted tran steps =             75

Notice from spectre during transient analysis `DifTempo-011_DifTempo', during task `MDLControl'.
    Trapezoidal ringing is detected during tran analysis.
        Please use method=trap for better results and performance.


Maximum value achieved for any signal of each quantity: 
V: V(out) = 1 V
I: I(Vd:p) = 14.42 uA
If your circuit contains signals of the same quantity that are vastly different in size (such as high voltage circuitry combined with low voltage control circuitry), you should consider specifying global option `bin_relref=yes'.

~~~~~~~~~~~~~~~~~~~~~~~~~~~~~~~~~
Post-Transient Simulation Summary
~~~~~~~~~~~~~~~~~~~~~~~~~~~~~~~~~
   -   To further speed up simulation, consider
          add ++aps on command line
~~~~~~~~~~~~~~~~~~~~~~~~~~~~~~~~~


During simulation, the CPU load for active processors is :
        Spectre  0 (95.0 %)      1 (42.1 %)      2 (100.0 %)     3 (35.4 %)
        Other   
Initial condition solution time: CPU = 294 us, elapsed = 295.877 us.
Intrinsic tran analysis time:    CPU = 8.658 ms, elapsed = 31.636 ms.
Total time required for tran analysis `DifTempo-011_DifTempo': CPU = 10.261 ms, elapsed = 33.2329 ms.
Time accumulated: CPU = 467.225 ms, elapsed = 1.82471 s.
Peak resident memory used = 64.4 Mbytes.


Notice from spectre during task `MDLControl'.
    9 notices suppressed.


****************************************************************
Transient Analysis `DifTempo-012_DifTempo': time = (0 s -> 3 ns)
****************************************************************
DC simulation time: CPU = 280 us, elapsed = 1.00398 ms.

Notice from spectre during transient analysis `DifTempo-012_DifTempo', during task `MDLControl'.
    No outputs were found. Loosening output filter criterion to `allpub'.


Opening the PSF file inv1.raw/DifTempo-012_DifTempo.tran.tran ...
Important parameter values:
    start = 0 s
    outputstart = 0 s
    stop = 3 ns
    step = 3 ps
    maxstep = 60 ps
    ic = all
    useprevic = no
    skipdc = no
    reltol = 1e-03
    abstol(V) = 1 uV
    abstol(I) = 1 pA
    temp = 27 C
    tnom = 27 C
    tempeffects = all
    errpreset = moderate
    method = traponly
    lteratio = 3.5
    relref = sigglobal
    cmin = 0 F
    gmin = 1 pS


Output and IC/nodeset summary:
                 save   2       (current)
                 save   3       (voltage)

........9........8........7........6........5........4....

Notice from spectre at time = 1.99859 ns during transient analysis `DifTempo-012_DifTempo', during task `MDLControl'.
    Found trapezoidal ringing on node Va:p.

........9........8........7........6........5........4......

Notice from spectre at time = 2.05859 ns during transient analysis `DifTempo-012_DifTempo', during task `MDLControl'.
    Found trapezoidal ringing on node Va:p.

........9........8........7........6........5........4........

Notice from spectre at time = 2.11859 ns during transient analysis `DifTempo-012_DifTempo', during task `MDLControl'.
    Found trapezoidal ringing on node Va:p.

........9........8........7........6........5........4........3.

Notice from spectre at time = 2.1275 ns during transient analysis `DifTempo-012_DifTempo', during task `MDLControl'.
    Found trapezoidal ringing on node Va:p.

........9........8........7........6........5........4........3........2..

Notice from spectre at time = 2.52987 ns during transient analysis `DifTempo-012_DifTempo', during task `MDLControl'.
    Found trapezoidal ringing on node Vd:p.
        Further occurrences of this notice will be suppressed.

........9........8........7........6........5........4........3........2........1........0
Number of accepted tran steps =             76

Notice from spectre during transient analysis `DifTempo-012_DifTempo', during task `MDLControl'.
    Trapezoidal ringing is detected during tran analysis.
        Please use method=trap for better results and performance.


Maximum value achieved for any signal of each quantity: 
V: V(out) = 1 V
I: I(Vd:p) = 8.05 uA
If your circuit contains signals of the same quantity that are vastly different in size (such as high voltage circuitry combined with low voltage control circuitry), you should consider specifying global option `bin_relref=yes'.

~~~~~~~~~~~~~~~~~~~~~~~~~~~~~~~~~
Post-Transient Simulation Summary
~~~~~~~~~~~~~~~~~~~~~~~~~~~~~~~~~
   -   To further speed up simulation, consider
          add ++aps on command line
~~~~~~~~~~~~~~~~~~~~~~~~~~~~~~~~~


During simulation, the CPU load for active processors is :
        Spectre  0 (95.3 %)      1 (41.1 %)      2 (100.0 %)     3 (35.6 %)
        Other   
Initial condition solution time: CPU = 350 us, elapsed = 1.13893 ms.
Intrinsic tran analysis time:    CPU = 9.565 ms, elapsed = 38.7521 ms.
Total time required for tran analysis `DifTempo-012_DifTempo': CPU = 11.24 ms, elapsed = 43.525 ms.
Time accumulated: CPU = 485.635 ms, elapsed = 1.95214 s.
Peak resident memory used = 64.4 Mbytes.


Notice from spectre during task `MDLControl'.
    8 notices suppressed.


****************************************************************
Transient Analysis `DifTempo-013_DifTempo': time = (0 s -> 3 ns)
****************************************************************
DC simulation time: CPU = 252 us, elapsed = 252.008 us.

Notice from spectre during transient analysis `DifTempo-013_DifTempo', during task `MDLControl'.
    No outputs were found. Loosening output filter criterion to `allpub'.


Opening the PSF file inv1.raw/DifTempo-013_DifTempo.tran.tran ...
Important parameter values:
    start = 0 s
    outputstart = 0 s
    stop = 3 ns
    step = 3 ps
    maxstep = 60 ps
    ic = all
    useprevic = no
    skipdc = no
    reltol = 1e-03
    abstol(V) = 1 uV
    abstol(I) = 1 pA
    temp = 27 C
    tnom = 27 C
    tempeffects = all
    errpreset = moderate
    method = traponly
    lteratio = 3.5
    relref = sigglobal
    cmin = 0 F
    gmin = 1 pS


Output and IC/nodeset summary:
                 save   2       (current)
                 save   3       (voltage)

........9........8........7........6.

Notice from spectre at time = 1.30992 ns during transient analysis `DifTempo-013_DifTempo', during task `MDLControl'.
    Found trapezoidal ringing on node Va:p.

........9........8........7........6...

Notice from spectre at time = 1.36992 ns during transient analysis `DifTempo-013_DifTempo', during task `MDLControl'.
    Found trapezoidal ringing on node Va:p.

........9........8........7........6.....

Notice from spectre at time = 1.42992 ns during transient analysis `DifTempo-013_DifTempo', during task `MDLControl'.
    Found trapezoidal ringing on node Va:p.

........9........8........7........6.......

Notice from spectre at time = 1.48992 ns during transient analysis `DifTempo-013_DifTempo', during task `MDLControl'.
    Found trapezoidal ringing on node Va:p.

........9........8........7........6........5........4........3........2........

Notice from spectre at time = 2.72624 ns during transient analysis `DifTempo-013_DifTempo', during task `MDLControl'.
    Found trapezoidal ringing on node Vd:p.
        Further occurrences of this notice will be suppressed.

........9........8........7........6........5........4........3........2........1........0
Number of accepted tran steps =             63

Notice from spectre during transient analysis `DifTempo-013_DifTempo', during task `MDLControl'.
    Trapezoidal ringing is detected during tran analysis.
        Please use method=trap for better results and performance.


Maximum value achieved for any signal of each quantity: 
V: V(X1.M_i_1:dbnode) = 1 V
I: I(Vd:p) = 4.996 uA
If your circuit contains signals of the same quantity that are vastly different in size (such as high voltage circuitry combined with low voltage control circuitry), you should consider specifying global option `bin_relref=yes'.

~~~~~~~~~~~~~~~~~~~~~~~~~~~~~~~~~
Post-Transient Simulation Summary
~~~~~~~~~~~~~~~~~~~~~~~~~~~~~~~~~
   -   To further speed up simulation, consider
          add ++aps on command line
~~~~~~~~~~~~~~~~~~~~~~~~~~~~~~~~~


During simulation, the CPU load for active processors is :
        Spectre  0 (95.6 %)      1 (40.3 %)      2 (100.0 %)     3 (35.5 %)
        Other   
Initial condition solution time: CPU = 294 us, elapsed = 299.931 us.
Intrinsic tran analysis time:    CPU = 8.205 ms, elapsed = 35.804 ms.
Total time required for tran analysis `DifTempo-013_DifTempo': CPU = 9.648 ms, elapsed = 37.3721 ms.
Time accumulated: CPU = 502.917 ms, elapsed = 2.07104 s.
Peak resident memory used = 64.4 Mbytes.


Notice from spectre during task `MDLControl'.
    5 notices suppressed.


****************************************************************
Transient Analysis `DifTempo-014_DifTempo': time = (0 s -> 3 ns)
****************************************************************
DC simulation time: CPU = 256 us, elapsed = 256.062 us.

Notice from spectre during transient analysis `DifTempo-014_DifTempo', during task `MDLControl'.
    No outputs were found. Loosening output filter criterion to `allpub'.


Opening the PSF file inv1.raw/DifTempo-014_DifTempo.tran.tran ...
Important parameter values:
    start = 0 s
    outputstart = 0 s
    stop = 3 ns
    step = 3 ps
    maxstep = 60 ps
    ic = all
    useprevic = no
    skipdc = no
    reltol = 1e-03
    abstol(V) = 1 uV
    abstol(I) = 1 pA
    temp = 27 C
    tnom = 27 C
    tempeffects = all
    errpreset = moderate
    method = traponly
    lteratio = 3.5
    relref = sigglobal
    cmin = 0 F
    gmin = 1 pS


Output and IC/nodeset summary:
                 save   2       (current)
                 save   3       (voltage)

........9........8........7........

Notice from spectre at time = 1.23455 ns during transient analysis `DifTempo-014_DifTempo', during task `MDLControl'.
    Found trapezoidal ringing on node Vd:p.

........9........8........7........6.

Notice from spectre at time = 1.29455 ns during transient analysis `DifTempo-014_DifTempo', during task `MDLControl'.
    Found trapezoidal ringing on node Vd:p.

........9........8........7........6...

Notice from spectre at time = 1.35455 ns during transient analysis `DifTempo-014_DifTempo', during task `MDLControl'.
    Found trapezoidal ringing on node Vd:p.

........9........8........7........6.....

Notice from spectre at time = 1.41455 ns during transient analysis `DifTempo-014_DifTempo', during task `MDLControl'.
    Found trapezoidal ringing on node Vd:p.

........9........8........7........6......

Notice from spectre at time = 1.47455 ns during transient analysis `DifTempo-014_DifTempo', during task `MDLControl'.
    Found trapezoidal ringing on node Vd:p.
        Further occurrences of this notice will be suppressed.

........9........8........7........6........5........4........3........2........1........0
Number of accepted tran steps =             83

Notice from spectre during transient analysis `DifTempo-014_DifTempo', during task `MDLControl'.
    Trapezoidal ringing is detected during tran analysis.
        Please use method=trap for better results and performance.


Maximum value achieved for any signal of each quantity: 
V: V(X1.M_i_1:dbnode) = 1 V
I: I(Vd:p) = 104.2 uA
If your circuit contains signals of the same quantity that are vastly different in size (such as high voltage circuitry combined with low voltage control circuitry), you should consider specifying global option `bin_relref=yes'.

~~~~~~~~~~~~~~~~~~~~~~~~~~~~~~~~~
Post-Transient Simulation Summary
~~~~~~~~~~~~~~~~~~~~~~~~~~~~~~~~~
   -   To further speed up simulation, consider
          add ++aps on command line
~~~~~~~~~~~~~~~~~~~~~~~~~~~~~~~~~


During simulation, the CPU load for active processors is :
        Spectre  0 (95.9 %)      1 (39.4 %)      2 (100.0 %)     3 (34.6 %)
        Other   
Initial condition solution time: CPU = 305 us, elapsed = 311.136 us.
Intrinsic tran analysis time:    CPU = 10.931 ms, elapsed = 40.2679 ms.
Total time required for tran analysis `DifTempo-014_DifTempo': CPU = 12.405 ms, elapsed = 41.8661 ms.
Time accumulated: CPU = 524.435 ms, elapsed = 2.2419 s.
Peak resident memory used = 64.4 Mbytes.


Notice from spectre during task `MDLControl'.
    26 notices suppressed.


****************************************************************
Transient Analysis `DifTempo-015_DifTempo': time = (0 s -> 3 ns)
****************************************************************
DC simulation time: CPU = 253 us, elapsed = 255.108 us.

Notice from spectre during transient analysis `DifTempo-015_DifTempo', during task `MDLControl'.
    No outputs were found. Loosening output filter criterion to `allpub'.


Opening the PSF file inv1.raw/DifTempo-015_DifTempo.tran.tran ...
Important parameter values:
    start = 0 s
    outputstart = 0 s
    stop = 3 ns
    step = 3 ps
    maxstep = 60 ps
    ic = all
    useprevic = no
    skipdc = no
    reltol = 1e-03
    abstol(V) = 1 uV
    abstol(I) = 1 pA
    temp = 27 C
    tnom = 27 C
    tempeffects = all
    errpreset = moderate
    method = traponly
    lteratio = 3.5
    relref = sigglobal
    cmin = 0 F
    gmin = 1 pS


Output and IC/nodeset summary:
                 save   2       (current)
                 save   3       (voltage)

........9........8........7........6

Notice from spectre at time = 1.26564 ns during transient analysis `DifTempo-015_DifTempo', during task `MDLControl'.
    Found trapezoidal ringing on node Vd:p.

........9........8........7........6..

Notice from spectre at time = 1.32564 ns during transient analysis `DifTempo-015_DifTempo', during task `MDLControl'.
    Found trapezoidal ringing on node Vd:p.

........9........8........7........6....

Notice from spectre at time = 1.38564 ns during transient analysis `DifTempo-015_DifTempo', during task `MDLControl'.
    Found trapezoidal ringing on node Vd:p.

........9........8........7........6......

Notice from spectre at time = 1.44564 ns during transient analysis `DifTempo-015_DifTempo', during task `MDLControl'.
    Found trapezoidal ringing on node Vd:p.

........9........8........7........6.......

Notice from spectre at time = 1.50564 ns during transient analysis `DifTempo-015_DifTempo', during task `MDLControl'.
    Found trapezoidal ringing on node Vd:p.
        Further occurrences of this notice will be suppressed.

........9........8........7........6........5........4........3........2........1........0
Number of accepted tran steps =             81

Notice from spectre during transient analysis `DifTempo-015_DifTempo', during task `MDLControl'.
    Trapezoidal ringing is detected during tran analysis.
        Please use method=trap for better results and performance.


Maximum value achieved for any signal of each quantity: 
V: V(X1.M_i_1:dbnode) = 1 V
I: I(Vd:p) = 69.43 uA
If your circuit contains signals of the same quantity that are vastly different in size (such as high voltage circuitry combined with low voltage control circuitry), you should consider specifying global option `bin_relref=yes'.

~~~~~~~~~~~~~~~~~~~~~~~~~~~~~~~~~
Post-Transient Simulation Summary
~~~~~~~~~~~~~~~~~~~~~~~~~~~~~~~~~
   -   To further speed up simulation, consider
          add ++aps on command line
~~~~~~~~~~~~~~~~~~~~~~~~~~~~~~~~~


During simulation, the CPU load for active processors is :
        Spectre  0 (92.7 %)      1 (41.7 %)      2 (100.0 %)     3 (35.2 %)
        Other   
Initial condition solution time: CPU = 303 us, elapsed = 308.99 us.
Intrinsic tran analysis time:    CPU = 9.098 ms, elapsed = 34.5261 ms.
Total time required for tran analysis `DifTempo-015_DifTempo': CPU = 10.565 ms, elapsed = 36.1121 ms.
Time accumulated: CPU = 542.252 ms, elapsed = 2.36557 s.
Peak resident memory used = 64.5 Mbytes.


Notice from spectre during task `MDLControl'.
    25 notices suppressed.


****************************************************************
Transient Analysis `DifTempo-016_DifTempo': time = (0 s -> 3 ns)
****************************************************************
DC simulation time: CPU = 261 us, elapsed = 262.022 us.

Notice from spectre during transient analysis `DifTempo-016_DifTempo', during task `MDLControl'.
    No outputs were found. Loosening output filter criterion to `allpub'.


Opening the PSF file inv1.raw/DifTempo-016_DifTempo.tran.tran ...
Important parameter values:
    start = 0 s
    outputstart = 0 s
    stop = 3 ns
    step = 3 ps
    maxstep = 60 ps
    ic = all
    useprevic = no
    skipdc = no
    reltol = 1e-03
    abstol(V) = 1 uV
    abstol(I) = 1 pA
    temp = 27 C
    tnom = 27 C
    tempeffects = all
    errpreset = moderate
    method = traponly
    lteratio = 3.5
    relref = sigglobal
    cmin = 0 F
    gmin = 1 pS


Output and IC/nodeset summary:
                 save   2       (current)
                 save   3       (voltage)

........9........8........7........6.......

Notice from spectre at time = 1.48026 ns during transient analysis `DifTempo-016_DifTempo', during task `MDLControl'.
    Found trapezoidal ringing on node Vd:p.

........9........8........7........6........

Notice from spectre at time = 1.54026 ns during transient analysis `DifTempo-016_DifTempo', during task `MDLControl'.
    Found trapezoidal ringing on node Vd:p.

........9........8........7........6........5.

Notice from spectre at time = 1.60026 ns during transient analysis `DifTempo-016_DifTempo', during task `MDLControl'.
    Found trapezoidal ringing on node Vd:p.

........9........8........7........6........5...

Notice from spectre at time = 1.66026 ns during transient analysis `DifTempo-016_DifTempo', during task `MDLControl'.
    Found trapezoidal ringing on node Vd:p.

........9........8........7........6........5.....

Notice from spectre at time = 1.72026 ns during transient analysis `DifTempo-016_DifTempo', during task `MDLControl'.
    Found trapezoidal ringing on node Vd:p.
        Further occurrences of this notice will be suppressed.

........9........8........7........6........5........4........3........2........1........0
Number of accepted tran steps =             81

Notice from spectre during transient analysis `DifTempo-016_DifTempo', during task `MDLControl'.
    Trapezoidal ringing is detected during tran analysis.
        Please use method=trap for better results and performance.


Maximum value achieved for any signal of each quantity: 
V: V(X1.M_i_1:dbnode) = 1 V
I: I(Vd:p) = 48.13 uA
If your circuit contains signals of the same quantity that are vastly different in size (such as high voltage circuitry combined with low voltage control circuitry), you should consider specifying global option `bin_relref=yes'.

~~~~~~~~~~~~~~~~~~~~~~~~~~~~~~~~~
Post-Transient Simulation Summary
~~~~~~~~~~~~~~~~~~~~~~~~~~~~~~~~~
   -   To further speed up simulation, consider
          add ++aps on command line
~~~~~~~~~~~~~~~~~~~~~~~~~~~~~~~~~


During simulation, the CPU load for active processors is :
        Spectre  0 (89.8 %)      1 (44.6 %)      2 (100.0 %)     3 (34.7 %)
        Other   
Initial condition solution time: CPU = 311 us, elapsed = 316.858 us.
Intrinsic tran analysis time:    CPU = 9.259 ms, elapsed = 33.5069 ms.
Total time required for tran analysis `DifTempo-016_DifTempo': CPU = 10.754 ms, elapsed = 35.1219 ms.
Time accumulated: CPU = 560.438 ms, elapsed = 2.48555 s.
Peak resident memory used = 64.5 Mbytes.


Notice from spectre during task `MDLControl'.
    22 notices suppressed.


****************************************************************
Transient Analysis `DifTempo-017_DifTempo': time = (0 s -> 3 ns)
****************************************************************
DC simulation time: CPU = 240 us, elapsed = 241.041 us.

Notice from spectre during transient analysis `DifTempo-017_DifTempo', during task `MDLControl'.
    No outputs were found. Loosening output filter criterion to `allpub'.


Opening the PSF file inv1.raw/DifTempo-017_DifTempo.tran.tran ...
Important parameter values:
    start = 0 s
    outputstart = 0 s
    stop = 3 ns
    step = 3 ps
    maxstep = 60 ps
    ic = all
    useprevic = no
    skipdc = no
    reltol = 1e-03
    abstol(V) = 1 uV
    abstol(I) = 1 pA
    temp = 27 C
    tnom = 27 C
    tempeffects = all
    errpreset = moderate
    method = traponly
    lteratio = 3.5
    relref = sigglobal
    cmin = 0 F
    gmin = 1 pS


Output and IC/nodeset summary:
                 save   2       (current)
                 save   3       (voltage)

........9........8........7........6........5.

Notice from spectre at time = 1.57912 ns during transient analysis `DifTempo-017_DifTempo', during task `MDLControl'.
    Found trapezoidal ringing on node Vd:p.

........9........8........7........6........5..

Notice from spectre at time = 1.63912 ns during transient analysis `DifTempo-017_DifTempo', during task `MDLControl'.
    Found trapezoidal ringing on node Vd:p.

........9........8........7........6........5....

Notice from spectre at time = 1.69912 ns during transient analysis `DifTempo-017_DifTempo', during task `MDLControl'.
    Found trapezoidal ringing on node Vd:p.

........9........8........7........6........5......

Notice from spectre at time = 1.75912 ns during transient analysis `DifTempo-017_DifTempo', during task `MDLControl'.
    Found trapezoidal ringing on node Vd:p.

........9........8........7........6........5........

Notice from spectre at time = 1.81912 ns during transient analysis `DifTempo-017_DifTempo', during task `MDLControl'.
    Found trapezoidal ringing on node Vd:p.
        Further occurrences of this notice will be suppressed.

........9........8........7........6........5........4........3........2........1........0
Number of accepted tran steps =             78

Notice from spectre during transient analysis `DifTempo-017_DifTempo', during task `MDLControl'.
    Trapezoidal ringing is detected during tran analysis.
        Please use method=trap for better results and performance.


Maximum value achieved for any signal of each quantity: 
V: V(X1.M_i_1:dbnode) = 1 V
I: I(Vd:p) = 29.64 uA
If your circuit contains signals of the same quantity that are vastly different in size (such as high voltage circuitry combined with low voltage control circuitry), you should consider specifying global option `bin_relref=yes'.

~~~~~~~~~~~~~~~~~~~~~~~~~~~~~~~~~
Post-Transient Simulation Summary
~~~~~~~~~~~~~~~~~~~~~~~~~~~~~~~~~
   -   To further speed up simulation, consider
          add ++aps on command line
~~~~~~~~~~~~~~~~~~~~~~~~~~~~~~~~~


During simulation, the CPU load for active processors is :
        Spectre  0 (89.1 %)      1 (45.5 %)      2 (100.0 %)     3 (34.4 %)
        Other   
Initial condition solution time: CPU = 291 us, elapsed = 297.07 us.
Intrinsic tran analysis time:    CPU = 9.022 ms, elapsed = 32.8119 ms.
Total time required for tran analysis `DifTempo-017_DifTempo': CPU = 10.664 ms, elapsed = 34.662 ms.
Time accumulated: CPU = 578.163 ms, elapsed = 2.60987 s.
Peak resident memory used = 64.5 Mbytes.


Notice from spectre during task `MDLControl'.
    20 notices suppressed.


****************************************************************
Transient Analysis `DifTempo-018_DifTempo': time = (0 s -> 3 ns)
****************************************************************
DC simulation time: CPU = 271 us, elapsed = 272.989 us.

Notice from spectre during transient analysis `DifTempo-018_DifTempo', during task `MDLControl'.
    No outputs were found. Loosening output filter criterion to `allpub'.


Opening the PSF file inv1.raw/DifTempo-018_DifTempo.tran.tran ...
Important parameter values:
    start = 0 s
    outputstart = 0 s
    stop = 3 ns
    step = 3 ps
    maxstep = 60 ps
    ic = all
    useprevic = no
    skipdc = no
    reltol = 1e-03
    abstol(V) = 1 uV
    abstol(I) = 1 pA
    temp = 27 C
    tnom = 27 C
    tempeffects = all
    errpreset = moderate
    method = traponly
    lteratio = 3.5
    relref = sigglobal
    cmin = 0 F
    gmin = 1 pS


Output and IC/nodeset summary:
                 save   2       (current)
                 save   3       (voltage)

........9........8........7........6........5..

Notice from spectre at time = 1.59375 ns during transient analysis `DifTempo-018_DifTempo', during task `MDLControl'.
    Found trapezoidal ringing on node Va:p.

........9........8........7........6........5........4........

Notice from spectre at time = 2.13903 ns during transient analysis `DifTempo-018_DifTempo', during task `MDLControl'.
    Found trapezoidal ringing on node Vd:p.

........9........8........7........6........5........4........3.

Notice from spectre at time = 2.19903 ns during transient analysis `DifTempo-018_DifTempo', during task `MDLControl'.
    Found trapezoidal ringing on node Vd:p.

........9........8........7........6........5........4........3...

Notice from spectre at time = 2.25903 ns during transient analysis `DifTempo-018_DifTempo', during task `MDLControl'.
    Found trapezoidal ringing on node Vd:p.

........9........8........7........6........5........4........3.....

Notice from spectre at time = 2.31903 ns during transient analysis `DifTempo-018_DifTempo', during task `MDLControl'.
    Found trapezoidal ringing on node Vd:p.
        Further occurrences of this notice will be suppressed.

........9........8........7........6........5........4........3........2........1........0
Number of accepted tran steps =             75

Notice from spectre during transient analysis `DifTempo-018_DifTempo', during task `MDLControl'.
    Trapezoidal ringing is detected during tran analysis.
        Please use method=trap for better results and performance.


Maximum value achieved for any signal of each quantity: 
V: V(out) = 1 V
I: I(Vd:p) = 18.38 uA
If your circuit contains signals of the same quantity that are vastly different in size (such as high voltage circuitry combined with low voltage control circuitry), you should consider specifying global option `bin_relref=yes'.

~~~~~~~~~~~~~~~~~~~~~~~~~~~~~~~~~
Post-Transient Simulation Summary
~~~~~~~~~~~~~~~~~~~~~~~~~~~~~~~~~
   -   To further speed up simulation, consider
          add ++aps on command line
~~~~~~~~~~~~~~~~~~~~~~~~~~~~~~~~~


During simulation, the CPU load for active processors is :
        Spectre  0 (87.7 %)      1 (47.0 %)      2 (100.0 %)     3 (34.3 %)
        Other   
Initial condition solution time: CPU = 313 us, elapsed = 314.951 us.
Intrinsic tran analysis time:    CPU = 8.712 ms, elapsed = 31.7671 ms.
Total time required for tran analysis `DifTempo-018_DifTempo': CPU = 10.32 ms, elapsed = 33.375 ms.
Time accumulated: CPU = 595.878 ms, elapsed = 2.727 s.
Peak resident memory used = 64.5 Mbytes.


Notice from spectre during task `MDLControl'.
    12 notices suppressed.


****************************************************************
Transient Analysis `DifTempo-019_DifTempo': time = (0 s -> 3 ns)
****************************************************************
DC simulation time: CPU = 264 us, elapsed = 264.883 us.

Notice from spectre during transient analysis `DifTempo-019_DifTempo', during task `MDLControl'.
    No outputs were found. Loosening output filter criterion to `allpub'.


Opening the PSF file inv1.raw/DifTempo-019_DifTempo.tran.tran ...
Important parameter values:
    start = 0 s
    outputstart = 0 s
    stop = 3 ns
    step = 3 ps
    maxstep = 60 ps
    ic = all
    useprevic = no
    skipdc = no
    reltol = 1e-03
    abstol(V) = 1 uV
    abstol(I) = 1 pA
    temp = 27 C
    tnom = 27 C
    tempeffects = all
    errpreset = moderate
    method = traponly
    lteratio = 3.5
    relref = sigglobal
    cmin = 0 F
    gmin = 1 pS


Output and IC/nodeset summary:
                 save   2       (current)
                 save   3       (voltage)

........9........8........7........6........5........4......

Notice from spectre at time = 2.04815 ns during transient analysis `DifTempo-019_DifTempo', during task `MDLControl'.
    Found trapezoidal ringing on node Va:p.

........9........8........7........6........5........4.......

Notice from spectre at time = 2.10815 ns during transient analysis `DifTempo-019_DifTempo', during task `MDLControl'.
    Found trapezoidal ringing on node Va:p.

........9........8........7........6........5........4........3

Notice from spectre at time = 2.1275 ns during transient analysis `DifTempo-019_DifTempo', during task `MDLControl'.
    Found trapezoidal ringing on node Va:p.

........9........8........7........6........5........4........3........2...

Notice from spectre at time = 2.57004 ns during transient analysis `DifTempo-019_DifTempo', during task `MDLControl'.
    Found trapezoidal ringing on node Vd:p.

........9........8........7........6........5........4........3........2.....

Notice from spectre at time = 2.63004 ns during transient analysis `DifTempo-019_DifTempo', during task `MDLControl'.
    Found trapezoidal ringing on node Vd:p.
        Further occurrences of this notice will be suppressed.

........9........8........7........6........5........4........3........2........1........0
Number of accepted tran steps =             76

Notice from spectre during transient analysis `DifTempo-019_DifTempo', during task `MDLControl'.
    Trapezoidal ringing is detected during tran analysis.
        Please use method=trap for better results and performance.


Maximum value achieved for any signal of each quantity: 
V: V(out) = 1 V
I: I(Vd:p) = 10.98 uA
If your circuit contains signals of the same quantity that are vastly different in size (such as high voltage circuitry combined with low voltage control circuitry), you should consider specifying global option `bin_relref=yes'.

~~~~~~~~~~~~~~~~~~~~~~~~~~~~~~~~~
Post-Transient Simulation Summary
~~~~~~~~~~~~~~~~~~~~~~~~~~~~~~~~~
   -   To further speed up simulation, consider
          add ++aps on command line
~~~~~~~~~~~~~~~~~~~~~~~~~~~~~~~~~


During simulation, the CPU load for active processors is :
        Spectre  0 (87.5 %)      1 (46.4 %)      2 (100.0 %)     3 (34.4 %)
        Other   
Initial condition solution time: CPU = 315 us, elapsed = 322.104 us.
Intrinsic tran analysis time:    CPU = 9.368 ms, elapsed = 33.4561 ms.
Total time required for tran analysis `DifTempo-019_DifTempo': CPU = 10.898 ms, elapsed = 35.198 ms.
Time accumulated: CPU = 614.167 ms, elapsed = 2.8442 s.
Peak resident memory used = 64.5 Mbytes.


Notice from spectre during task `MDLControl'.
    7 notices suppressed.


****************************************************************
Transient Analysis `DifTempo-020_DifTempo': time = (0 s -> 3 ns)
****************************************************************
DC simulation time: CPU = 253 us, elapsed = 254.154 us.

Notice from spectre during transient analysis `DifTempo-020_DifTempo', during task `MDLControl'.
    No outputs were found. Loosening output filter criterion to `allpub'.


Opening the PSF file inv1.raw/DifTempo-020_DifTempo.tran.tran ...
Important parameter values:
    start = 0 s
    outputstart = 0 s
    stop = 3 ns
    step = 3 ps
    maxstep = 60 ps
    ic = all
    useprevic = no
    skipdc = no
    reltol = 1e-03
    abstol(V) = 1 uV
    abstol(I) = 1 pA
    temp = 27 C
    tnom = 27 C
    tempeffects = all
    errpreset = moderate
    method = traponly
    lteratio = 3.5
    relref = sigglobal
    cmin = 0 F
    gmin = 1 pS


Output and IC/nodeset summary:
                 save   2       (current)
                 save   3       (voltage)

........9........8........7........6.

Notice from spectre at time = 1.30992 ns during transient analysis `DifTempo-020_DifTempo', during task `MDLControl'.
    Found trapezoidal ringing on node Va:p.

........9........8........7........6...

Notice from spectre at time = 1.36992 ns during transient analysis `DifTempo-020_DifTempo', during task `MDLControl'.
    Found trapezoidal ringing on node Va:p.

........9........8........7........6........5........4........3........2.......

Notice from spectre at time = 2.70947 ns during transient analysis `DifTempo-020_DifTempo', during task `MDLControl'.
    Found trapezoidal ringing on node Va:p.

........9........8........7........6........5........4........3........2........1

Notice from spectre at time = 2.76947 ns during transient analysis `DifTempo-020_DifTempo', during task `MDLControl'.
    Found trapezoidal ringing on node Va:p.

........9........8........7........6........5........4........3........2........1..

Notice from spectre at time = 2.82947 ns during transient analysis `DifTempo-020_DifTempo', during task `MDLControl'.
    Found trapezoidal ringing on node Va:p.
        Further occurrences of this notice will be suppressed.

........9........8........7........6........5........4........3........2........1........0
Number of accepted tran steps =             64

Notice from spectre during transient analysis `DifTempo-020_DifTempo', during task `MDLControl'.
    Trapezoidal ringing is detected during tran analysis.
        Please use method=trap for better results and performance.


Maximum value achieved for any signal of each quantity: 
V: V(X1.M_i_1:dbnode) = 1 V
I: I(Vd:p) = 6.54 uA
If your circuit contains signals of the same quantity that are vastly different in size (such as high voltage circuitry combined with low voltage control circuitry), you should consider specifying global option `bin_relref=yes'.

~~~~~~~~~~~~~~~~~~~~~~~~~~~~~~~~~
Post-Transient Simulation Summary
~~~~~~~~~~~~~~~~~~~~~~~~~~~~~~~~~
   -   To further speed up simulation, consider
          add ++aps on command line
~~~~~~~~~~~~~~~~~~~~~~~~~~~~~~~~~


During simulation, the CPU load for active processors is :
        Spectre  0 (88.0 %)      1 (45.7 %)      2 (100.0 %)     3 (34.4 %)
        Other   
Initial condition solution time: CPU = 292 us, elapsed = 293.97 us.
Intrinsic tran analysis time:    CPU = 8.496 ms, elapsed = 32.7258 ms.
[...]
    Found trapezoidal ringing on node Vd:p.

........9........8........7........6........5........4.

Notice from spectre at time = 1.87722 ns during transient analysis `DifTempo-043_DifTempo', during task `MDLControl'.
    Found trapezoidal ringing on node Vd:p.

........9........8........7........6........5........4..

Notice from spectre at time = 1.93722 ns during transient analysis `DifTempo-043_DifTempo', during task `MDLControl'.
    Found trapezoidal ringing on node Vd:p.

........9........8........7........6........5........4....

Notice from spectre at time = 1.99722 ns during transient analysis `DifTempo-043_DifTempo', during task `MDLControl'.
    Found trapezoidal ringing on node Vd:p.

........9........8........7........6........5........4......

Notice from spectre at time = 2.05722 ns during transient analysis `DifTempo-043_DifTempo', during task `MDLControl'.
    Found trapezoidal ringing on node Vd:p.
        Further occurrences of this notice will be suppressed.

........9........8........7........6........5........4........3........2........1........0
Number of accepted tran steps =             74

Notice from spectre during transient analysis `DifTempo-043_DifTempo', during task `MDLControl'.
    Trapezoidal ringing is detected during tran analysis.
        Please use method=trap for better results and performance.


Maximum value achieved for any signal of each quantity: 
V: V(X1.M_i_1:dbnode) = 1 V
I: I(Vd:p) = 128.1 uA
If your circuit contains signals of the same quantity that are vastly different in size (such as high voltage circuitry combined with low voltage control circuitry), you should consider specifying global option `bin_relref=yes'.

~~~~~~~~~~~~~~~~~~~~~~~~~~~~~~~~~
Post-Transient Simulation Summary
~~~~~~~~~~~~~~~~~~~~~~~~~~~~~~~~~
   -   To further speed up simulation, consider
          add ++aps on command line
~~~~~~~~~~~~~~~~~~~~~~~~~~~~~~~~~


During simulation, the CPU load for active processors is :
        Spectre  0 (90.3 %)      1 (42.0 %)      2 (100.0 %)     3 (35.2 %)
        Other   
Initial condition solution time: CPU = 283 us, elapsed = 289.917 us.
Intrinsic tran analysis time:    CPU = 8.881 ms, elapsed = 34.3139 ms.
Total time required for tran analysis `DifTempo-043_DifTempo': CPU = 10.323 ms, elapsed = 35.897 ms.
Time accumulated: CPU = 1.04284 s, elapsed = 6.11392 s.
Peak resident memory used = 64.8 Mbytes.


Notice from spectre during task `MDLControl'.
    16 notices suppressed.


****************************************************************
Transient Analysis `DifTempo-044_DifTempo': time = (0 s -> 3 ns)
****************************************************************
DC simulation time: CPU = 253 us, elapsed = 252.962 us.

Notice from spectre during transient analysis `DifTempo-044_DifTempo', during task `MDLControl'.
    No outputs were found. Loosening output filter criterion to `allpub'.


Opening the PSF file inv1.raw/DifTempo-044_DifTempo.tran.tran ...
Important parameter values:
    start = 0 s
    outputstart = 0 s
    stop = 3 ns
    step = 3 ps
    maxstep = 60 ps
    ic = all
    useprevic = no
    skipdc = no
    reltol = 1e-03
    abstol(V) = 1 uV
    abstol(I) = 1 pA
    temp = 27 C
    tnom = 27 C
    tempeffects = all
    errpreset = moderate
    method = traponly
    lteratio = 3.5
    relref = sigglobal
    cmin = 0 F
    gmin = 1 pS


Output and IC/nodeset summary:
                 save   2       (current)
                 save   3       (voltage)

........9........8........7........6........5.....

Notice from spectre at time = 1.74085 ns during transient analysis `DifTempo-044_DifTempo', during task `MDLControl'.
    Found trapezoidal ringing on node Va:p.

........9........8........7........6........5.......

Notice from spectre at time = 1.80085 ns during transient analysis `DifTempo-044_DifTempo', during task `MDLControl'.
    Found trapezoidal ringing on node Va:p.

........9........8........7........6........5........4

Notice from spectre at time = 1.86085 ns during transient analysis `DifTempo-044_DifTempo', during task `MDLControl'.
    Found trapezoidal ringing on node Va:p.

........9........8........7........6........5........4..

Notice from spectre at time = 1.92085 ns during transient analysis `DifTempo-044_DifTempo', during task `MDLControl'.
    Found trapezoidal ringing on node Va:p.

........9........8........7........6........5........4....

Notice from spectre at time = 1.98085 ns during transient analysis `DifTempo-044_DifTempo', during task `MDLControl'.
    Found trapezoidal ringing on node Va:p.
        Further occurrences of this notice will be suppressed.

........9........8........7........6........5........4........3........2........1........0
Number of accepted tran steps =             75

Notice from spectre during transient analysis `DifTempo-044_DifTempo', during task `MDLControl'.
    Trapezoidal ringing is detected during tran analysis.
        Please use method=trap for better results and performance.


Maximum value achieved for any signal of each quantity: 
V: V(X1.M_i_1:dbnode) = 1 V
I: I(Vd:p) = 121.9 uA
If your circuit contains signals of the same quantity that are vastly different in size (such as high voltage circuitry combined with low voltage control circuitry), you should consider specifying global option `bin_relref=yes'.

~~~~~~~~~~~~~~~~~~~~~~~~~~~~~~~~~
Post-Transient Simulation Summary
~~~~~~~~~~~~~~~~~~~~~~~~~~~~~~~~~
   -   To further speed up simulation, consider
          add ++aps on command line
~~~~~~~~~~~~~~~~~~~~~~~~~~~~~~~~~


During simulation, the CPU load for active processors is :
        Spectre  0 (90.5 %)      1 (41.8 %)      2 (100.0 %)     3 (35.5 %)
        Other   
Initial condition solution time: CPU = 304 us, elapsed = 312.09 us.
Intrinsic tran analysis time:    CPU = 9.08 ms, elapsed = 40.7031 ms.
Total time required for tran analysis `DifTempo-044_DifTempo': CPU = 10.62 ms, elapsed = 43.1571 ms.
Time accumulated: CPU = 1.06072 s, elapsed = 6.24042 s.
Peak resident memory used = 64.8 Mbytes.


Notice from spectre during task `MDLControl'.
    17 notices suppressed.


****************************************************************
Transient Analysis `DifTempo-045_DifTempo': time = (0 s -> 3 ns)
****************************************************************
DC simulation time: CPU = 244 us, elapsed = 243.902 us.

Notice from spectre during transient analysis `DifTempo-045_DifTempo', during task `MDLControl'.
    No outputs were found. Loosening output filter criterion to `allpub'.


Opening the PSF file inv1.raw/DifTempo-045_DifTempo.tran.tran ...
Important parameter values:
    start = 0 s
    outputstart = 0 s
    stop = 3 ns
    step = 3 ps
    maxstep = 60 ps
    ic = all
    useprevic = no
    skipdc = no
    reltol = 1e-03
    abstol(V) = 1 uV
    abstol(I) = 1 pA
    temp = 27 C
    tnom = 27 C
    tempeffects = all
    errpreset = moderate
    method = traponly
    lteratio = 3.5
    relref = sigglobal
    cmin = 0 F
    gmin = 1 pS


Output and IC/nodeset summary:
                 save   2       (current)
                 save   3       (voltage)

........9........8........7........6........5........4...

Notice from spectre at time = 1.97374 ns during transient analysis `DifTempo-045_DifTempo', during task `MDLControl'.
    Found trapezoidal ringing on node Vd:p.

........9........8........7........6........5........4.....

Notice from spectre at time = 2.03374 ns during transient analysis `DifTempo-045_DifTempo', during task `MDLControl'.
    Found trapezoidal ringing on node Vd:p.

........9........8........7........6........5........4.......

Notice from spectre at time = 2.09374 ns during transient analysis `DifTempo-045_DifTempo', during task `MDLControl'.
    Found trapezoidal ringing on node Vd:p.

........9........8........7........6........5........4........3

Notice from spectre at time = 2.15374 ns during transient analysis `DifTempo-045_DifTempo', during task `MDLControl'.
    Found trapezoidal ringing on node Vd:p.

........9........8........7........6........5........4........3..

Notice from spectre at time = 2.21374 ns during transient analysis `DifTempo-045_DifTempo', during task `MDLControl'.
    Found trapezoidal ringing on node Vd:p.
        Further occurrences of this notice will be suppressed.

........9........8........7........6........5........4........3........2........1........0
Number of accepted tran steps =             71

Notice from spectre during transient analysis `DifTempo-045_DifTempo', during task `MDLControl'.
    Trapezoidal ringing is detected during tran analysis.
        Please use method=trap for better results and performance.


Maximum value achieved for any signal of each quantity: 
V: V(X1.M_i_1:dbnode) = 1 V
I: I(Vd:p) = 112.1 uA
If your circuit contains signals of the same quantity that are vastly different in size (such as high voltage circuitry combined with low voltage control circuitry), you should consider specifying global option `bin_relref=yes'.

~~~~~~~~~~~~~~~~~~~~~~~~~~~~~~~~~
Post-Transient Simulation Summary
~~~~~~~~~~~~~~~~~~~~~~~~~~~~~~~~~
   -   To further speed up simulation, consider
          add ++aps on command line
~~~~~~~~~~~~~~~~~~~~~~~~~~~~~~~~~


During simulation, the CPU load for active processors is :
        Spectre  0 (90.6 %)      1 (41.8 %)      2 (100.0 %)     3 (35.5 %)
        Other   
Initial condition solution time: CPU = 281 us, elapsed = 283.003 us.
Intrinsic tran analysis time:    CPU = 8.727 ms, elapsed = 32.8369 ms.
Total time required for tran analysis `DifTempo-045_DifTempo': CPU = 10.258 ms, elapsed = 34.368 ms.
Time accumulated: CPU = 1.07823 s, elapsed = 6.36142 s.
Peak resident memory used = 64.8 Mbytes.


Notice from spectre during task `MDLControl'.
    14 notices suppressed.


****************************************************************
Transient Analysis `DifTempo-046_DifTempo': time = (0 s -> 3 ns)
****************************************************************
DC simulation time: CPU = 286 us, elapsed = 287.056 us.

Notice from spectre during transient analysis `DifTempo-046_DifTempo', during task `MDLControl'.
    No outputs were found. Loosening output filter criterion to `allpub'.


Opening the PSF file inv1.raw/DifTempo-046_DifTempo.tran.tran ...
Important parameter values:
    start = 0 s
    outputstart = 0 s
    stop = 3 ns
    step = 3 ps
    maxstep = 60 ps
    ic = all
    useprevic = no
    skipdc = no
    reltol = 1e-03
    abstol(V) = 1 uV
    abstol(I) = 1 pA
    temp = 27 C
    tnom = 27 C
    tempeffects = all
    errpreset = moderate
    method = traponly
    lteratio = 3.5
    relref = sigglobal
    cmin = 0 F
    gmin = 1 pS


Output and IC/nodeset summary:
                 save   2       (current)
                 save   3       (voltage)

........9........8........7........6........5........4........3...

Notice from spectre at time = 2.24336 ns during transient analysis `DifTempo-046_DifTempo', during task `MDLControl'.
    Found trapezoidal ringing on node Vd:p.

........9........8........7........6........5........4........3....

Notice from spectre at time = 2.30336 ns during transient analysis `DifTempo-046_DifTempo', during task `MDLControl'.
    Found trapezoidal ringing on node Vd:p.

........9........8........7........6........5........4........3......

Notice from spectre at time = 2.36336 ns during transient analysis `DifTempo-046_DifTempo', during task `MDLControl'.
    Found trapezoidal ringing on node Vd:p.

........9........8........7........6........5........4........3........

Notice from spectre at time = 2.42336 ns during transient analysis `DifTempo-046_DifTempo', during task `MDLControl'.
    Found trapezoidal ringing on node Vd:p.

........9........8........7........6........5........4........3........2.

Notice from spectre at time = 2.48336 ns during transient analysis `DifTempo-046_DifTempo', during task `MDLControl'.
    Found trapezoidal ringing on node Vd:p.
        Further occurrences of this notice will be suppressed.

........9........8........7........6........5........4........3........2........1........0
Number of accepted tran steps =             68

Notice from spectre during transient analysis `DifTempo-046_DifTempo', during task `MDLControl'.
    Trapezoidal ringing is detected during tran analysis.
        Please use method=trap for better results and performance.


Maximum value achieved for any signal of each quantity: 
V: V(X1.M_i_1:dbnode) = 1 V
I: I(Vd:p) = 85.38 uA
If your circuit contains signals of the same quantity that are vastly different in size (such as high voltage circuitry combined with low voltage control circuitry), you should consider specifying global option `bin_relref=yes'.

~~~~~~~~~~~~~~~~~~~~~~~~~~~~~~~~~
Post-Transient Simulation Summary
~~~~~~~~~~~~~~~~~~~~~~~~~~~~~~~~~
   -   To further speed up simulation, consider
          add ++aps on command line
~~~~~~~~~~~~~~~~~~~~~~~~~~~~~~~~~


During simulation, the CPU load for active processors is :
        Spectre  0 (90.8 %)      1 (42.0 %)      2 (100.0 %)     3 (35.7 %)
        Other   
Initial condition solution time: CPU = 326 us, elapsed = 329.018 us.
Intrinsic tran analysis time:    CPU = 8.211 ms, elapsed = 31.2159 ms.
Total time required for tran analysis `DifTempo-046_DifTempo': CPU = 9.782 ms, elapsed = 32.7828 ms.
Time accumulated: CPU = 1.09519 s, elapsed = 6.47648 s.
Peak resident memory used = 64.8 Mbytes.


Notice from spectre during task `MDLControl'.
    9 notices suppressed.


****************************************************************
Transient Analysis `DifTempo-047_DifTempo': time = (0 s -> 3 ns)
****************************************************************
DC simulation time: CPU = 249 us, elapsed = 249.863 us.

Notice from spectre during transient analysis `DifTempo-047_DifTempo', during task `MDLControl'.
    No outputs were found. Loosening output filter criterion to `allpub'.


Opening the PSF file inv1.raw/DifTempo-047_DifTempo.tran.tran ...
Important parameter values:
    start = 0 s
    outputstart = 0 s
    stop = 3 ns
    step = 3 ps
    maxstep = 60 ps
    ic = all
    useprevic = no
    skipdc = no
    reltol = 1e-03
    abstol(V) = 1 uV
    abstol(I) = 1 pA
    temp = 27 C
    tnom = 27 C
    tempeffects = all
    errpreset = moderate
    method = traponly
    lteratio = 3.5
    relref = sigglobal
    cmin = 0 F
    gmin = 1 pS


Output and IC/nodeset summary:
                 save   2       (current)
                 save   3       (voltage)

........9........8........7........6........5........4........3........2........

Notice from spectre at time = 2.73385 ns during transient analysis `DifTempo-047_DifTempo', during task `MDLControl'.
    Found trapezoidal ringing on node Vd:p.

........9........8........7........6........5........4........3........2........1.

Notice from spectre at time = 2.79385 ns during transient analysis `DifTempo-047_DifTempo', during task `MDLControl'.
    Found trapezoidal ringing on node Vd:p.

........9........8........7........6........5........4........3........2........1...

Notice from spectre at time = 2.85385 ns during transient analysis `DifTempo-047_DifTempo', during task `MDLControl'.
    Found trapezoidal ringing on node Vd:p.

........9........8........7........6........5........4........3........2........1.....

Notice from spectre at time = 2.91385 ns during transient analysis `DifTempo-047_DifTempo', during task `MDLControl'.
    Found trapezoidal ringing on node Vd:p.

........9........8........7........6........5........4........3........2........1......

Notice from spectre at time = 2.95693 ns during transient analysis `DifTempo-047_DifTempo', during task `MDLControl'.
    Found trapezoidal ringing on node Vd:p.
        Further occurrences of this notice will be suppressed.

........9........8........7........6........5........4........3........2........1........0
Number of accepted tran steps =             65

Notice from spectre during transient analysis `DifTempo-047_DifTempo', during task `MDLControl'.
    Trapezoidal ringing is detected during tran analysis.
        Please use method=trap for better results and performance.


Maximum value achieved for any signal of each quantity: 
V: V(X1.M_i_1:dbnode) = 1 V
I: I(Vd:p) = 60.48 uA
If your circuit contains signals of the same quantity that are vastly different in size (such as high voltage circuitry combined with low voltage control circuitry), you should consider specifying global option `bin_relref=yes'.

~~~~~~~~~~~~~~~~~~~~~~~~~~~~~~~~~
Post-Transient Simulation Summary
~~~~~~~~~~~~~~~~~~~~~~~~~~~~~~~~~
   -   To further speed up simulation, consider
          add ++aps on command line
~~~~~~~~~~~~~~~~~~~~~~~~~~~~~~~~~


During simulation, the CPU load for active processors is :
        Spectre  0 (91.0 %)      1 (42.2 %)      2 (100.0 %)     3 (35.9 %)
        Other   
Initial condition solution time: CPU = 289 us, elapsed = 289.917 us.
Intrinsic tran analysis time:    CPU = 9.617 ms, elapsed = 34.7719 ms.
Total time required for tran analysis `DifTempo-047_DifTempo': CPU = 11.046 ms, elapsed = 36.2 ms.
Time accumulated: CPU = 1.11333 s, elapsed = 6.5966 s.
Peak resident memory used = 64.8 Mbytes.


Notice from spectre during task `MDLControl'.
    1 notice suppressed.


****************************************************************
Transient Analysis `DifTempo-048_DifTempo': time = (0 s -> 3 ns)
****************************************************************
DC simulation time: CPU = 258 us, elapsed = 257.969 us.

Notice from spectre during transient analysis `DifTempo-048_DifTempo', during task `MDLControl'.
    No outputs were found. Loosening output filter criterion to `allpub'.


Opening the PSF file inv1.raw/DifTempo-048_DifTempo.tran.tran ...
Important parameter values:
    start = 0 s
    outputstart = 0 s
    stop = 3 ns
    step = 3 ps
    maxstep = 60 ps
    ic = all
    useprevic = no
    skipdc = no
    reltol = 1e-03
    abstol(V) = 1 uV
    abstol(I) = 1 pA
    temp = 27 C
    tnom = 27 C
    tempeffects = all
    errpreset = moderate
    method = traponly
    lteratio = 3.5
    relref = sigglobal
    cmin = 0 F
    gmin = 1 pS


Output and IC/nodeset summary:
                 save   2       (current)
                 save   3       (voltage)

........9........8........7........6........5........4........3........2........1........0
Number of accepted tran steps =             60

Maximum value achieved for any signal of each quantity: 
V: V(X1.M_i_1:dbnode) = 1 V
I: I(Vd:p) = 39.69 uA
If your circuit contains signals of the same quantity that are vastly different in size (such as high voltage circuitry combined with low voltage control circuitry), you should consider specifying global option `bin_relref=yes'.

~~~~~~~~~~~~~~~~~~~~~~~~~~~~~~~~~
Post-Transient Simulation Summary
~~~~~~~~~~~~~~~~~~~~~~~~~~~~~~~~~
   -   To further speed up simulation, consider
          add ++aps on command line
~~~~~~~~~~~~~~~~~~~~~~~~~~~~~~~~~


During simulation, the CPU load for active processors is :
        Spectre  0 (91.1 %)      1 (42.0 %)      2 (100.0 %)     3 (35.7 %)
        Other   
Initial condition solution time: CPU = 309 us, elapsed = 314.951 us.
Intrinsic tran analysis time:    CPU = 5.815 ms, elapsed = 37.1158 ms.
Total time required for tran analysis `DifTempo-048_DifTempo': CPU = 7.328 ms, elapsed = 39.0151 ms.
Time accumulated: CPU = 1.12827 s, elapsed = 6.71664 s.
Peak resident memory used = 64.8 Mbytes.


Aggregate audit (12:22:14 PM, Mon Jan 13, 2020):
Time used: CPU = 1.13 s, elapsed = 6.78 s, util. = 16.7%.
Time spent in licensing: elapsed = 22.9 ms.
Peak memory used = 65.3 Mbytes.
Simulation started at: 12:22:07 PM, Mon Jan 13, 2020, ended at: 12:22:14 PM, Mon Jan 13, 2020, with elapsed time (wall clock): 6.78 s.
spectre completes with 0 errors, 3 warnings, and 371 notices.
