
Spectre (R) Circuit Simulator
Version 16.1.0.673.isr14 64bit -- 30 Mar 2018
Copyright (C) 1989-2018 Cadence Design Systems, Inc. All rights reserved worldwide. Cadence and Spectre are registered trademarks of Cadence Design Systems, Inc. All others are the property of their respective holders.

Includes RSA BSAFE(R) Cryptographic or Security Protocol Software from RSA Security, Inc.

User: brunozimmer   Host: itacolomi.lapsi   HostID: 7F0100   PID: 699
Memory  available: 382.7343 MB  physical: 33.7038 GB
Linux   : CentOS Linux release 7.6.1810 (Core) 
CPU Type: Intel(R) Xeon(R) CPU E3-1220 V2 @ 3.10GHz
        Socket: Processors [Frequency]
        0:       0 [3097.0],  1 [3052.1],  2 [3095.3],  3 [3126.1]
        
System load averages (1min, 5min, 15min) : 2.8 %, 5.2 %, 6.2 %


Simulating `NAND.scs' on itacolomi.lapsi at 9:41:00 AM, Fri Feb 14, 2020 (process id: 699).
Current working directory: /home/brunozimmer/Documentos/Prop/Nand/tp_hl_b
Command line:
    /tools/cadence/SPECTRE161/tools.lnx86/bin/spectre -64 =mdl NAND.mdl  \
        NAND.scs

Loading /tools/cadence/SPECTRE161/tools.lnx86/cmi/lib/64bit/5.0/libinfineon_sh.so ...
Loading /tools/cadence/SPECTRE161/tools.lnx86/cmi/lib/64bit/5.0/libphilips_o_sh.so ...
Loading /tools/cadence/SPECTRE161/tools.lnx86/cmi/lib/64bit/5.0/libphilips_sh.so ...
Loading /tools/cadence/SPECTRE161/tools.lnx86/cmi/lib/64bit/5.0/libsparam_sh.so ...
Loading /tools/cadence/SPECTRE161/tools.lnx86/cmi/lib/64bit/5.0/libstmodels_sh.so ...
Loading /tools/cadence/SPECTRE161/tools.lnx86/spectre/lib/64bit/mdl/libSpectreEH_sh.so ...

Warning from spectre.
    WARNING (MDL-1452): line 1, column 1: syntax error before or at: *
            unrecognised statement.

Reading file:  /home/brunozimmer/Documentos/Prop/Nand/tp_hl_b/NAND.scs
Reading file:  /tools/cadence/SPECTRE161/tools.lnx86/spectre/etc/configs/mapsubckt.cfg
Reading file:  /tools/cadence/SPECTRE161/tools.lnx86/spectre/etc/configs/spectre.cfg
Reading file:  /home/brunozimmer/Documentos/Prop/Nand/tp_hl_b/NAND2.spi
Reading file:  /home/brunozimmer/Documentos/Prop/Nand/tp_hl_b/45nm_LP.pm
Time for NDB Parsing: CPU = 185.283 ms, elapsed = 194.349 ms.
Time accumulated: CPU = 204.68 ms, elapsed = 194.356 ms.
Peak resident memory used = 52.9 Mbytes.

Reading link:  /tools/cadence/SPECTRE161/tools.lnx86/spectre/etc/ahdl/discipline.h
Reading file:  /tools/cadence/SPECTRE161/tools.lnx86/spectre/etc/ahdl/disciplines.vams
Reading link:  /tools/cadence/SPECTRE161/tools.lnx86/spectre/etc/ahdl/constants.h
Reading file:  /tools/cadence/SPECTRE161/tools.lnx86/spectre/etc/ahdl/constants.vams
Time for Elaboration: CPU = 16.465 ms, elapsed = 16.4971 ms.
Time accumulated: CPU = 221.283 ms, elapsed = 211.006 ms.
Peak resident memory used = 59.6 Mbytes.


Warning from spectre during hierarchy flattening.
    WARNING (SFE-2468): A MDL control file 'NAND.mdl' is specified.  All .measure, .print and .probe statements in netlist 'NAND.scs' are ignored.



Warning from spectre during circuit read-in.
    WARNING:     Analysis tran for .print not found, ignoring

Time for EDB Visiting: CPU = 794 us, elapsed = 821.114 us.
Time accumulated: CPU = 222.201 ms, elapsed = 211.965 ms.
Peak resident memory used = 60.3 Mbytes.


Global user options:
             rawfmt = psfbin

Scoped user options:

Circuit inventory:
              nodes 6
              bsim4 8     
          capacitor 1     
            vsource 3     

Analysis and control statement inventory:
               tran 1     

Output statements:
             .probe 1     
           .measure 0     
               save 0     

Time for parsing: CPU = 1.979 ms, elapsed = 34.656 ms.
Time accumulated: CPU = 224.286 ms, elapsed = 246.741 ms.
Peak resident memory used = 61.7 Mbytes.

~~~~~~~~~~~~~~~~~~~~~~
Pre-Simulation Summary
~~~~~~~~~~~~~~~~~~~~~~
~~~~~~~~~~~~~~~~~~~~~~

****************************************************************
Transient Analysis `DifTempo-000_DifTempo': time = (0 s -> 3 ns)
****************************************************************

Notice from spectre during IC analysis, during transient analysis `DifTempo-000_DifTempo', during task `MDLControl'.
    GminDC = 1 pS is large enough to noticeably affect the DC solution.
        dV(X1.net_0__m0__m1) = -8.75782 mV
        Use the `gmin_check' option to eliminate or expand this report.

DC simulation time: CPU = 925 us, elapsed = 948.191 us.

Notice from spectre during transient analysis `DifTempo-000_DifTempo', during task `MDLControl'.
    No outputs were found. Loosening output filter criterion to `allpub'.


Opening the PSF file NAND.raw/DifTempo-000_DifTempo.tran.tran ...
Important parameter values:
    start = 0 s
    outputstart = 0 s
    stop = 3 ns
    step = 3 ps
    maxstep = 60 ps
    ic = all
    useprevic = no
    skipdc = no
    reltol = 1e-03
    abstol(V) = 1 uV
    abstol(I) = 1 pA
    temp = 27 C
    tnom = 27 C
    tempeffects = all
    errpreset = moderate
    method = traponly
    lteratio = 3.5
    relref = sigglobal
    cmin = 0 F
    gmin = 1 pS


Output and IC/nodeset summary:
                 save   3       (current)
                 save   6       (voltage)

........

Notice from spectre at time = 333 ps during transient analysis `DifTempo-000_DifTempo', during task `MDLControl'.
    Found trapezoidal ringing on node Va:p.

........9.

Notice from spectre at time = 393 ps during transient analysis `DifTempo-000_DifTempo', during task `MDLControl'.
    Found trapezoidal ringing on node Va:p.

........9...

Notice from spectre at time = 453 ps during transient analysis `DifTempo-000_DifTempo', during task `MDLControl'.
    Found trapezoidal ringing on node Va:p.

........9.....

Notice from spectre at time = 513 ps during transient analysis `DifTempo-000_DifTempo', during task `MDLControl'.
    Found trapezoidal ringing on node Va:p.

........9......

Notice from spectre at time = 573 ps during transient analysis `DifTempo-000_DifTempo', during task `MDLControl'.
    Found trapezoidal ringing on node Va:p.
        Further occurrences of this notice will be suppressed.

........9........8........7........6........5........4........3........2........1........0
Number of accepted tran steps =             87

Notice from spectre during transient analysis `DifTempo-000_DifTempo', during task `MDLControl'.
    Trapezoidal ringing is detected during tran analysis.
        Please use method=trap for better results and performance.


Maximum value achieved for any signal of each quantity: 
V: V(out) = 1.106 V
I: I(Vb:p) = 81.13 uA
If your circuit contains signals of the same quantity that are vastly different in size (such as high voltage circuitry combined with low voltage control circuitry), you should consider specifying global option `bin_relref=yes'.

~~~~~~~~~~~~~~~~~~~~~~~~~~~~~~~~~
Post-Transient Simulation Summary
~~~~~~~~~~~~~~~~~~~~~~~~~~~~~~~~~
   -   To further speed up simulation, consider
          add ++aps on command line
~~~~~~~~~~~~~~~~~~~~~~~~~~~~~~~~~


During simulation, the CPU load for active processors is :
        Spectre  0 (25.0 %)      1 (69.0 %)      2 (7.4 %)       3 (17.9 %)
        Other   
Initial condition solution time: CPU = 974 us, elapsed = 1.00303 ms.
Intrinsic tran analysis time:    CPU = 15.342 ms, elapsed = 38.069 ms.
Total time required for tran analysis `DifTempo-000_DifTempo': CPU = 17.644 ms, elapsed = 40.504 ms.
Time accumulated: CPU = 249.596 ms, elapsed = 326.114 ms.
Peak resident memory used = 64.2 Mbytes.


Notice from spectre during task `MDLControl'.
    39 notices suppressed.


****************************************************************
Transient Analysis `DifTempo-001_DifTempo': time = (0 s -> 3 ns)
****************************************************************

Notice from spectre during IC analysis, during transient analysis `DifTempo-001_DifTempo', during task `MDLControl'.
    GminDC = 1 pS is large enough to noticeably affect the DC solution.
        dV(X1.net_0__m0__m1) = -8.75782 mV
        Use the `gmin_check' option to eliminate or expand this report.

DC simulation time: CPU = 718 us, elapsed = 719.07 us.

Notice from spectre during transient analysis `DifTempo-001_DifTempo', during task `MDLControl'.
    No outputs were found. Loosening output filter criterion to `allpub'.


Opening the PSF file NAND.raw/DifTempo-001_DifTempo.tran.tran ...
Important parameter values:
    start = 0 s
    outputstart = 0 s
    stop = 3 ns
    step = 3 ps
    maxstep = 60 ps
    ic = all
    useprevic = no
    skipdc = no
    reltol = 1e-03
    abstol(V) = 1 uV
    abstol(I) = 1 pA
    temp = 27 C
    tnom = 27 C
    tempeffects = all
    errpreset = moderate
    method = traponly
    lteratio = 3.5
    relref = sigglobal
    cmin = 0 F
    gmin = 1 pS


Output and IC/nodeset summary:
                 save   3       (current)
                 save   6       (voltage)

........9.

Notice from spectre at time = 393 ps during transient analysis `DifTempo-001_DifTempo', during task `MDLControl'.
    Found trapezoidal ringing on node Va:p.

........9...

Notice from spectre at time = 453 ps during transient analysis `DifTempo-001_DifTempo', during task `MDLControl'.
    Found trapezoidal ringing on node Va:p.

........9.....

Notice from spectre at time = 513 ps during transient analysis `DifTempo-001_DifTempo', during task `MDLControl'.
    Found trapezoidal ringing on node Va:p.

........9......

Notice from spectre at time = 573 ps during transient analysis `DifTempo-001_DifTempo', during task `MDLControl'.
    Found trapezoidal ringing on node Va:p.

........9........

Notice from spectre at time = 633 ps during transient analysis `DifTempo-001_DifTempo', during task `MDLControl'.
    Found trapezoidal ringing on node Va:p.
        Further occurrences of this notice will be suppressed.

........9........8........7........6........5........4........3........2........1........0
Number of accepted tran steps =             90

Notice from spectre during transient analysis `DifTempo-001_DifTempo', during task `MDLControl'.
    Trapezoidal ringing is detected during tran analysis.
        Please use method=trap for better results and performance.


Maximum value achieved for any signal of each quantity: 
V: V(out) = 1.105 V
I: I(Vb:p) = 78.12 uA
If your circuit contains signals of the same quantity that are vastly different in size (such as high voltage circuitry combined with low voltage control circuitry), you should consider specifying global option `bin_relref=yes'.

~~~~~~~~~~~~~~~~~~~~~~~~~~~~~~~~~
Post-Transient Simulation Summary
~~~~~~~~~~~~~~~~~~~~~~~~~~~~~~~~~
   -   To further speed up simulation, consider
          add ++aps on command line
~~~~~~~~~~~~~~~~~~~~~~~~~~~~~~~~~


During simulation, the CPU load for active processors is :
        Spectre  0 (23.7 %)      1 (56.4 %)      2 (13.2 %)      3 (17.9 %)
        Other   
Initial condition solution time: CPU = 756 us, elapsed = 757.933 us.
Intrinsic tran analysis time:    CPU = 18.646 ms, elapsed = 42.2769 ms.
Total time required for tran analysis `DifTempo-001_DifTempo': CPU = 20.475 ms, elapsed = 44.107 ms.
Time accumulated: CPU = 277.674 ms, elapsed = 429.264 ms.
Peak resident memory used = 64.3 Mbytes.


Notice from spectre during task `MDLControl'.
    38 notices suppressed.


Aggregate audit (9:41:00 AM, Fri Feb 14, 2020):
Time used: CPU = 282 ms, elapsed = 480 ms, util. = 58.6%.
Time spent in licensing: elapsed = 21.7 ms.
Peak memory used = 64.8 Mbytes.
Simulation started at: 9:41:00 AM, Fri Feb 14, 2020, ended at: 9:41:00 AM, Fri Feb 14, 2020, with elapsed time (wall clock): 480 ms.
spectre completes with 0 errors, 3 warnings, and 18 notices.
